
---------- Begin Simulation Statistics ----------
simSeconds                                   4.344925                       # Number of seconds simulated (Second)
simTicks                                 4344925322000                       # Number of ticks simulated (Tick)
finalTick                                4344925322000                       # Number of ticks from beginning of simulation (restored from checkpoints and never reset) (Tick)
simFreq                                  1000000000000                       # The number of ticks per simulated second ((Tick/Second))
hostSeconds                                   1166.15                       # Real time elapsed on the host (Second)
hostTickRate                               3725858522                       # The number of ticks simulated per host second (ticks/s) ((Tick/Second))
hostMemory                                     701964                       # Number of bytes of host memory used (Byte)
simInsts                                   1186682689                       # Number of instructions simulated (Count)
simOps                                     1186682744                       # Number of ops (including micro ops) simulated (Count)
hostInstRate                                  1017603                       # Simulator instruction rate (inst/s) ((Count/Second))
hostOpRate                                    1017603                       # Simulator op (including micro ops) rate (op/s) ((Count/Second))
system.clk_domain.clock                          1000                       # Clock period in ticks (Tick)
system.clk_domain.voltage_domain.voltage            1                       # Voltage in Volts (Volt)
system.cpu.numCycles                       4344925322                       # Number of cpu cycles simulated (Cycle)
system.cpu.cpi                               3.661404                       # CPI: cycles per instruction (core level) ((Cycle/Count))
system.cpu.ipc                               0.273119                       # IPC: instructions per cycle (core level) ((Count/Cycle))
system.cpu.numWorkItemsStarted                      0                       # Number of work items this cpu started (Count)
system.cpu.numWorkItemsCompleted                    0                       # Number of work items this cpu completed (Count)
system.cpu.issuedInstType_0::No_OpClass           100      0.00%      0.00% # Number of insts issued per FU, per thread (Count)
system.cpu.issuedInstType_0::IntAlu         872940024     73.56%     73.56% # Number of insts issued per FU, per thread (Count)
system.cpu.issuedInstType_0::IntMult                4      0.00%     73.56% # Number of insts issued per FU, per thread (Count)
system.cpu.issuedInstType_0::IntDiv               317      0.00%     73.56% # Number of insts issued per FU, per thread (Count)
system.cpu.issuedInstType_0::FloatAdd               0      0.00%     73.56% # Number of insts issued per FU, per thread (Count)
system.cpu.issuedInstType_0::FloatCmp               0      0.00%     73.56% # Number of insts issued per FU, per thread (Count)
system.cpu.issuedInstType_0::FloatCvt               0      0.00%     73.56% # Number of insts issued per FU, per thread (Count)
system.cpu.issuedInstType_0::FloatMult              0      0.00%     73.56% # Number of insts issued per FU, per thread (Count)
system.cpu.issuedInstType_0::FloatMultAcc            0      0.00%     73.56% # Number of insts issued per FU, per thread (Count)
system.cpu.issuedInstType_0::FloatDiv               0      0.00%     73.56% # Number of insts issued per FU, per thread (Count)
system.cpu.issuedInstType_0::FloatMisc              0      0.00%     73.56% # Number of insts issued per FU, per thread (Count)
system.cpu.issuedInstType_0::FloatSqrt              0      0.00%     73.56% # Number of insts issued per FU, per thread (Count)
system.cpu.issuedInstType_0::SimdAdd                0      0.00%     73.56% # Number of insts issued per FU, per thread (Count)
system.cpu.issuedInstType_0::SimdAddAcc             0      0.00%     73.56% # Number of insts issued per FU, per thread (Count)
system.cpu.issuedInstType_0::SimdAlu                0      0.00%     73.56% # Number of insts issued per FU, per thread (Count)
system.cpu.issuedInstType_0::SimdCmp                0      0.00%     73.56% # Number of insts issued per FU, per thread (Count)
system.cpu.issuedInstType_0::SimdCvt                0      0.00%     73.56% # Number of insts issued per FU, per thread (Count)
system.cpu.issuedInstType_0::SimdMisc               0      0.00%     73.56% # Number of insts issued per FU, per thread (Count)
system.cpu.issuedInstType_0::SimdMult               0      0.00%     73.56% # Number of insts issued per FU, per thread (Count)
system.cpu.issuedInstType_0::SimdMultAcc            0      0.00%     73.56% # Number of insts issued per FU, per thread (Count)
system.cpu.issuedInstType_0::SimdMatMultAcc            0      0.00%     73.56% # Number of insts issued per FU, per thread (Count)
system.cpu.issuedInstType_0::SimdShift              0      0.00%     73.56% # Number of insts issued per FU, per thread (Count)
system.cpu.issuedInstType_0::SimdShiftAcc            0      0.00%     73.56% # Number of insts issued per FU, per thread (Count)
system.cpu.issuedInstType_0::SimdDiv                0      0.00%     73.56% # Number of insts issued per FU, per thread (Count)
system.cpu.issuedInstType_0::SimdSqrt               0      0.00%     73.56% # Number of insts issued per FU, per thread (Count)
system.cpu.issuedInstType_0::SimdFloatAdd            0      0.00%     73.56% # Number of insts issued per FU, per thread (Count)
system.cpu.issuedInstType_0::SimdFloatAlu            0      0.00%     73.56% # Number of insts issued per FU, per thread (Count)
system.cpu.issuedInstType_0::SimdFloatCmp            0      0.00%     73.56% # Number of insts issued per FU, per thread (Count)
system.cpu.issuedInstType_0::SimdFloatCvt            0      0.00%     73.56% # Number of insts issued per FU, per thread (Count)
system.cpu.issuedInstType_0::SimdFloatDiv            0      0.00%     73.56% # Number of insts issued per FU, per thread (Count)
system.cpu.issuedInstType_0::SimdFloatMisc            0      0.00%     73.56% # Number of insts issued per FU, per thread (Count)
system.cpu.issuedInstType_0::SimdFloatMult            0      0.00%     73.56% # Number of insts issued per FU, per thread (Count)
system.cpu.issuedInstType_0::SimdFloatMultAcc            0      0.00%     73.56% # Number of insts issued per FU, per thread (Count)
system.cpu.issuedInstType_0::SimdFloatMatMultAcc            0      0.00%     73.56% # Number of insts issued per FU, per thread (Count)
system.cpu.issuedInstType_0::SimdFloatSqrt            0      0.00%     73.56% # Number of insts issued per FU, per thread (Count)
system.cpu.issuedInstType_0::SimdReduceAdd            0      0.00%     73.56% # Number of insts issued per FU, per thread (Count)
system.cpu.issuedInstType_0::SimdReduceAlu            0      0.00%     73.56% # Number of insts issued per FU, per thread (Count)
system.cpu.issuedInstType_0::SimdReduceCmp            0      0.00%     73.56% # Number of insts issued per FU, per thread (Count)
system.cpu.issuedInstType_0::SimdFloatReduceAdd            0      0.00%     73.56% # Number of insts issued per FU, per thread (Count)
system.cpu.issuedInstType_0::SimdFloatReduceCmp            0      0.00%     73.56% # Number of insts issued per FU, per thread (Count)
system.cpu.issuedInstType_0::SimdAes                0      0.00%     73.56% # Number of insts issued per FU, per thread (Count)
system.cpu.issuedInstType_0::SimdAesMix             0      0.00%     73.56% # Number of insts issued per FU, per thread (Count)
system.cpu.issuedInstType_0::SimdSha1Hash            0      0.00%     73.56% # Number of insts issued per FU, per thread (Count)
system.cpu.issuedInstType_0::SimdSha1Hash2            0      0.00%     73.56% # Number of insts issued per FU, per thread (Count)
system.cpu.issuedInstType_0::SimdSha256Hash            0      0.00%     73.56% # Number of insts issued per FU, per thread (Count)
system.cpu.issuedInstType_0::SimdSha256Hash2            0      0.00%     73.56% # Number of insts issued per FU, per thread (Count)
system.cpu.issuedInstType_0::SimdShaSigma2            0      0.00%     73.56% # Number of insts issued per FU, per thread (Count)
system.cpu.issuedInstType_0::SimdShaSigma3            0      0.00%     73.56% # Number of insts issued per FU, per thread (Count)
system.cpu.issuedInstType_0::SimdSha3               0      0.00%     73.56% # Number of insts issued per FU, per thread (Count)
system.cpu.issuedInstType_0::SimdSm4e               0      0.00%     73.56% # Number of insts issued per FU, per thread (Count)
system.cpu.issuedInstType_0::SimdCrc                0      0.00%     73.56% # Number of insts issued per FU, per thread (Count)
system.cpu.issuedInstType_0::SimdPredAlu            0      0.00%     73.56% # Number of insts issued per FU, per thread (Count)
system.cpu.issuedInstType_0::SimdDotProd            0      0.00%     73.56% # Number of insts issued per FU, per thread (Count)
system.cpu.issuedInstType_0::Matrix                 0      0.00%     73.56% # Number of insts issued per FU, per thread (Count)
system.cpu.issuedInstType_0::MatrixMov              0      0.00%     73.56% # Number of insts issued per FU, per thread (Count)
system.cpu.issuedInstType_0::MatrixOP               0      0.00%     73.56% # Number of insts issued per FU, per thread (Count)
system.cpu.issuedInstType_0::MemRead        183189965     15.44%     89.00% # Number of insts issued per FU, per thread (Count)
system.cpu.issuedInstType_0::MemWrite       130552322     11.00%    100.00% # Number of insts issued per FU, per thread (Count)
system.cpu.issuedInstType_0::FloatMemRead            0      0.00%    100.00% # Number of insts issued per FU, per thread (Count)
system.cpu.issuedInstType_0::FloatMemWrite           12      0.00%    100.00% # Number of insts issued per FU, per thread (Count)
system.cpu.issuedInstType_0::InstPrefetch            0      0.00%    100.00% # Number of insts issued per FU, per thread (Count)
system.cpu.issuedInstType_0::SimdUnitStrideLoad            0      0.00%    100.00% # Number of insts issued per FU, per thread (Count)
system.cpu.issuedInstType_0::SimdUnitStrideStore            0      0.00%    100.00% # Number of insts issued per FU, per thread (Count)
system.cpu.issuedInstType_0::SimdUnitStrideMaskLoad            0      0.00%    100.00% # Number of insts issued per FU, per thread (Count)
system.cpu.issuedInstType_0::SimdUnitStrideMaskStore            0      0.00%    100.00% # Number of insts issued per FU, per thread (Count)
system.cpu.issuedInstType_0::SimdStridedLoad            0      0.00%    100.00% # Number of insts issued per FU, per thread (Count)
system.cpu.issuedInstType_0::SimdStridedStore            0      0.00%    100.00% # Number of insts issued per FU, per thread (Count)
system.cpu.issuedInstType_0::SimdIndexedLoad            0      0.00%    100.00% # Number of insts issued per FU, per thread (Count)
system.cpu.issuedInstType_0::SimdIndexedStore            0      0.00%    100.00% # Number of insts issued per FU, per thread (Count)
system.cpu.issuedInstType_0::SimdWholeRegisterLoad            0      0.00%    100.00% # Number of insts issued per FU, per thread (Count)
system.cpu.issuedInstType_0::SimdWholeRegisterStore            0      0.00%    100.00% # Number of insts issued per FU, per thread (Count)
system.cpu.issuedInstType_0::SimdUnitStrideFaultOnlyFirstLoad            0      0.00%    100.00% # Number of insts issued per FU, per thread (Count)
system.cpu.issuedInstType_0::SimdUnitStrideSegmentedLoad            0      0.00%    100.00% # Number of insts issued per FU, per thread (Count)
system.cpu.issuedInstType_0::SimdUnitStrideSegmentedStore            0      0.00%    100.00% # Number of insts issued per FU, per thread (Count)
system.cpu.issuedInstType_0::SimdUnitStrideSegmentedFaultOnlyFirstLoad            0      0.00%    100.00% # Number of insts issued per FU, per thread (Count)
system.cpu.issuedInstType_0::SimdStrideSegmentedLoad            0      0.00%    100.00% # Number of insts issued per FU, per thread (Count)
system.cpu.issuedInstType_0::SimdStrideSegmentedStore            0      0.00%    100.00% # Number of insts issued per FU, per thread (Count)
system.cpu.issuedInstType_0::SimdExt                0      0.00%    100.00% # Number of insts issued per FU, per thread (Count)
system.cpu.issuedInstType_0::SimdFloatExt            0      0.00%    100.00% # Number of insts issued per FU, per thread (Count)
system.cpu.issuedInstType_0::SimdConfig             0      0.00%    100.00% # Number of insts issued per FU, per thread (Count)
system.cpu.issuedInstType_0::SimdBf16Add            0      0.00%    100.00% # Number of insts issued per FU, per thread (Count)
system.cpu.issuedInstType_0::SimdBf16Cmp            0      0.00%    100.00% # Number of insts issued per FU, per thread (Count)
system.cpu.issuedInstType_0::SimdBf16Cvt            0      0.00%    100.00% # Number of insts issued per FU, per thread (Count)
system.cpu.issuedInstType_0::SimdBf16DotProd            0      0.00%    100.00% # Number of insts issued per FU, per thread (Count)
system.cpu.issuedInstType_0::SimdBf16MatMultAcc            0      0.00%    100.00% # Number of insts issued per FU, per thread (Count)
system.cpu.issuedInstType_0::SimdBf16Mult            0      0.00%    100.00% # Number of insts issued per FU, per thread (Count)
system.cpu.issuedInstType_0::SimdBf16MultAcc            0      0.00%    100.00% # Number of insts issued per FU, per thread (Count)
system.cpu.issuedInstType_0::Bf16Cvt                0      0.00%    100.00% # Number of insts issued per FU, per thread (Count)
system.cpu.issuedInstType_0::System                 0      0.00%    100.00% # Number of insts issued per FU, per thread (Count)
system.cpu.issuedInstType_0::total         1186682744                       # Number of insts issued per FU, per thread (Count)
system.cpu.commitStats0.numInsts           1186682689                       # Number of instructions committed (thread level) (Count)
system.cpu.commitStats0.numOps             1186682744                       # Number of ops (including micro ops) committed (thread level) (Count)
system.cpu.commitStats0.numInstsNotNOP     1186682689                       # Number of instructions committed excluding NOPs or prefetches (Count)
system.cpu.commitStats0.numOpsNotNOP       1186682744                       # Number of Ops (including micro ops) Simulated (Count)
system.cpu.commitStats0.numUserInsts       1186682689                       # Numbrer of instructions committed in user mode (Count)
system.cpu.commitStats0.numUserOps         1186682744                       # Number of ops committed in user mode (Count)
system.cpu.commitStats0.ratioUserInsts              1                       # Ratio of instructions committed in user mode (Ratio)
system.cpu.commitStats0.ratioUserOps                1                       # Ratio of ops committed in user mode (Ratio)
system.cpu.commitStats0.cpi                  3.661404                       # CPI: cycles per instruction (thread level) ((Cycle/Count))
system.cpu.commitStats0.ipc                  0.273119                       # IPC: instructions per cycle (thread level) ((Count/Cycle))
system.cpu.commitStats0.numMemRefs          313742299                       # Number of memory references committed (Count)
system.cpu.commitStats0.numFpInsts                 12                       # Number of float instructions (Count)
system.cpu.commitStats0.numIntInsts        1178941348                       # Number of integer instructions (Count)
system.cpu.commitStats0.numLoadInsts        183189899                       # Number of load instructions (Count)
system.cpu.commitStats0.numStoreInsts       130552400                       # Number of store instructions (Count)
system.cpu.commitStats0.numVecInsts                 0                       # Number of vector instructions (Count)
system.cpu.commitStats0.committedInstType::No_OpClass          100      0.00%      0.00% # Class of committed instruction. (Count)
system.cpu.commitStats0.committedInstType::IntAlu    872940024     73.56%     73.56% # Class of committed instruction. (Count)
system.cpu.commitStats0.committedInstType::IntMult            4      0.00%     73.56% # Class of committed instruction. (Count)
system.cpu.commitStats0.committedInstType::IntDiv          317      0.00%     73.56% # Class of committed instruction. (Count)
system.cpu.commitStats0.committedInstType::FloatAdd            0      0.00%     73.56% # Class of committed instruction. (Count)
system.cpu.commitStats0.committedInstType::FloatCmp            0      0.00%     73.56% # Class of committed instruction. (Count)
system.cpu.commitStats0.committedInstType::FloatCvt            0      0.00%     73.56% # Class of committed instruction. (Count)
system.cpu.commitStats0.committedInstType::FloatMult            0      0.00%     73.56% # Class of committed instruction. (Count)
system.cpu.commitStats0.committedInstType::FloatMultAcc            0      0.00%     73.56% # Class of committed instruction. (Count)
system.cpu.commitStats0.committedInstType::FloatDiv            0      0.00%     73.56% # Class of committed instruction. (Count)
system.cpu.commitStats0.committedInstType::FloatMisc            0      0.00%     73.56% # Class of committed instruction. (Count)
system.cpu.commitStats0.committedInstType::FloatSqrt            0      0.00%     73.56% # Class of committed instruction. (Count)
system.cpu.commitStats0.committedInstType::SimdAdd            0      0.00%     73.56% # Class of committed instruction. (Count)
system.cpu.commitStats0.committedInstType::SimdAddAcc            0      0.00%     73.56% # Class of committed instruction. (Count)
system.cpu.commitStats0.committedInstType::SimdAlu            0      0.00%     73.56% # Class of committed instruction. (Count)
system.cpu.commitStats0.committedInstType::SimdCmp            0      0.00%     73.56% # Class of committed instruction. (Count)
system.cpu.commitStats0.committedInstType::SimdCvt            0      0.00%     73.56% # Class of committed instruction. (Count)
system.cpu.commitStats0.committedInstType::SimdMisc            0      0.00%     73.56% # Class of committed instruction. (Count)
system.cpu.commitStats0.committedInstType::SimdMult            0      0.00%     73.56% # Class of committed instruction. (Count)
system.cpu.commitStats0.committedInstType::SimdMultAcc            0      0.00%     73.56% # Class of committed instruction. (Count)
system.cpu.commitStats0.committedInstType::SimdMatMultAcc            0      0.00%     73.56% # Class of committed instruction. (Count)
system.cpu.commitStats0.committedInstType::SimdShift            0      0.00%     73.56% # Class of committed instruction. (Count)
system.cpu.commitStats0.committedInstType::SimdShiftAcc            0      0.00%     73.56% # Class of committed instruction. (Count)
system.cpu.commitStats0.committedInstType::SimdDiv            0      0.00%     73.56% # Class of committed instruction. (Count)
system.cpu.commitStats0.committedInstType::SimdSqrt            0      0.00%     73.56% # Class of committed instruction. (Count)
system.cpu.commitStats0.committedInstType::SimdFloatAdd            0      0.00%     73.56% # Class of committed instruction. (Count)
system.cpu.commitStats0.committedInstType::SimdFloatAlu            0      0.00%     73.56% # Class of committed instruction. (Count)
system.cpu.commitStats0.committedInstType::SimdFloatCmp            0      0.00%     73.56% # Class of committed instruction. (Count)
system.cpu.commitStats0.committedInstType::SimdFloatCvt            0      0.00%     73.56% # Class of committed instruction. (Count)
system.cpu.commitStats0.committedInstType::SimdFloatDiv            0      0.00%     73.56% # Class of committed instruction. (Count)
system.cpu.commitStats0.committedInstType::SimdFloatMisc            0      0.00%     73.56% # Class of committed instruction. (Count)
system.cpu.commitStats0.committedInstType::SimdFloatMult            0      0.00%     73.56% # Class of committed instruction. (Count)
system.cpu.commitStats0.committedInstType::SimdFloatMultAcc            0      0.00%     73.56% # Class of committed instruction. (Count)
system.cpu.commitStats0.committedInstType::SimdFloatMatMultAcc            0      0.00%     73.56% # Class of committed instruction. (Count)
system.cpu.commitStats0.committedInstType::SimdFloatSqrt            0      0.00%     73.56% # Class of committed instruction. (Count)
system.cpu.commitStats0.committedInstType::SimdReduceAdd            0      0.00%     73.56% # Class of committed instruction. (Count)
system.cpu.commitStats0.committedInstType::SimdReduceAlu            0      0.00%     73.56% # Class of committed instruction. (Count)
system.cpu.commitStats0.committedInstType::SimdReduceCmp            0      0.00%     73.56% # Class of committed instruction. (Count)
system.cpu.commitStats0.committedInstType::SimdFloatReduceAdd            0      0.00%     73.56% # Class of committed instruction. (Count)
system.cpu.commitStats0.committedInstType::SimdFloatReduceCmp            0      0.00%     73.56% # Class of committed instruction. (Count)
system.cpu.commitStats0.committedInstType::SimdAes            0      0.00%     73.56% # Class of committed instruction. (Count)
system.cpu.commitStats0.committedInstType::SimdAesMix            0      0.00%     73.56% # Class of committed instruction. (Count)
system.cpu.commitStats0.committedInstType::SimdSha1Hash            0      0.00%     73.56% # Class of committed instruction. (Count)
system.cpu.commitStats0.committedInstType::SimdSha1Hash2            0      0.00%     73.56% # Class of committed instruction. (Count)
system.cpu.commitStats0.committedInstType::SimdSha256Hash            0      0.00%     73.56% # Class of committed instruction. (Count)
system.cpu.commitStats0.committedInstType::SimdSha256Hash2            0      0.00%     73.56% # Class of committed instruction. (Count)
system.cpu.commitStats0.committedInstType::SimdShaSigma2            0      0.00%     73.56% # Class of committed instruction. (Count)
system.cpu.commitStats0.committedInstType::SimdShaSigma3            0      0.00%     73.56% # Class of committed instruction. (Count)
system.cpu.commitStats0.committedInstType::SimdSha3            0      0.00%     73.56% # Class of committed instruction. (Count)
system.cpu.commitStats0.committedInstType::SimdSm4e            0      0.00%     73.56% # Class of committed instruction. (Count)
system.cpu.commitStats0.committedInstType::SimdCrc            0      0.00%     73.56% # Class of committed instruction. (Count)
system.cpu.commitStats0.committedInstType::SimdPredAlu            0      0.00%     73.56% # Class of committed instruction. (Count)
system.cpu.commitStats0.committedInstType::SimdDotProd            0      0.00%     73.56% # Class of committed instruction. (Count)
system.cpu.commitStats0.committedInstType::Matrix            0      0.00%     73.56% # Class of committed instruction. (Count)
system.cpu.commitStats0.committedInstType::MatrixMov            0      0.00%     73.56% # Class of committed instruction. (Count)
system.cpu.commitStats0.committedInstType::MatrixOP            0      0.00%     73.56% # Class of committed instruction. (Count)
system.cpu.commitStats0.committedInstType::MemRead    183189965     15.44%     89.00% # Class of committed instruction. (Count)
system.cpu.commitStats0.committedInstType::MemWrite    130552322     11.00%    100.00% # Class of committed instruction. (Count)
system.cpu.commitStats0.committedInstType::FloatMemRead            0      0.00%    100.00% # Class of committed instruction. (Count)
system.cpu.commitStats0.committedInstType::FloatMemWrite           12      0.00%    100.00% # Class of committed instruction. (Count)
system.cpu.commitStats0.committedInstType::InstPrefetch            0      0.00%    100.00% # Class of committed instruction. (Count)
system.cpu.commitStats0.committedInstType::SimdUnitStrideLoad            0      0.00%    100.00% # Class of committed instruction. (Count)
system.cpu.commitStats0.committedInstType::SimdUnitStrideStore            0      0.00%    100.00% # Class of committed instruction. (Count)
system.cpu.commitStats0.committedInstType::SimdUnitStrideMaskLoad            0      0.00%    100.00% # Class of committed instruction. (Count)
system.cpu.commitStats0.committedInstType::SimdUnitStrideMaskStore            0      0.00%    100.00% # Class of committed instruction. (Count)
system.cpu.commitStats0.committedInstType::SimdStridedLoad            0      0.00%    100.00% # Class of committed instruction. (Count)
system.cpu.commitStats0.committedInstType::SimdStridedStore            0      0.00%    100.00% # Class of committed instruction. (Count)
system.cpu.commitStats0.committedInstType::SimdIndexedLoad            0      0.00%    100.00% # Class of committed instruction. (Count)
system.cpu.commitStats0.committedInstType::SimdIndexedStore            0      0.00%    100.00% # Class of committed instruction. (Count)
system.cpu.commitStats0.committedInstType::SimdWholeRegisterLoad            0      0.00%    100.00% # Class of committed instruction. (Count)
system.cpu.commitStats0.committedInstType::SimdWholeRegisterStore            0      0.00%    100.00% # Class of committed instruction. (Count)
system.cpu.commitStats0.committedInstType::SimdUnitStrideFaultOnlyFirstLoad            0      0.00%    100.00% # Class of committed instruction. (Count)
system.cpu.commitStats0.committedInstType::SimdUnitStrideSegmentedLoad            0      0.00%    100.00% # Class of committed instruction. (Count)
system.cpu.commitStats0.committedInstType::SimdUnitStrideSegmentedStore            0      0.00%    100.00% # Class of committed instruction. (Count)
system.cpu.commitStats0.committedInstType::SimdUnitStrideSegmentedFaultOnlyFirstLoad            0      0.00%    100.00% # Class of committed instruction. (Count)
system.cpu.commitStats0.committedInstType::SimdStrideSegmentedLoad            0      0.00%    100.00% # Class of committed instruction. (Count)
system.cpu.commitStats0.committedInstType::SimdStrideSegmentedStore            0      0.00%    100.00% # Class of committed instruction. (Count)
system.cpu.commitStats0.committedInstType::SimdExt            0      0.00%    100.00% # Class of committed instruction. (Count)
system.cpu.commitStats0.committedInstType::SimdFloatExt            0      0.00%    100.00% # Class of committed instruction. (Count)
system.cpu.commitStats0.committedInstType::SimdConfig            0      0.00%    100.00% # Class of committed instruction. (Count)
system.cpu.commitStats0.committedInstType::SimdBf16Add            0      0.00%    100.00% # Class of committed instruction. (Count)
system.cpu.commitStats0.committedInstType::SimdBf16Cmp            0      0.00%    100.00% # Class of committed instruction. (Count)
system.cpu.commitStats0.committedInstType::SimdBf16Cvt            0      0.00%    100.00% # Class of committed instruction. (Count)
system.cpu.commitStats0.committedInstType::SimdBf16DotProd            0      0.00%    100.00% # Class of committed instruction. (Count)
system.cpu.commitStats0.committedInstType::SimdBf16MatMultAcc            0      0.00%    100.00% # Class of committed instruction. (Count)
system.cpu.commitStats0.committedInstType::SimdBf16Mult            0      0.00%    100.00% # Class of committed instruction. (Count)
system.cpu.commitStats0.committedInstType::SimdBf16MultAcc            0      0.00%    100.00% # Class of committed instruction. (Count)
system.cpu.commitStats0.committedInstType::Bf16Cvt            0      0.00%    100.00% # Class of committed instruction. (Count)
system.cpu.commitStats0.committedInstType::System            0      0.00%    100.00% # Class of committed instruction. (Count)
system.cpu.commitStats0.committedInstType::total   1186682744                       # Class of committed instruction. (Count)
system.cpu.commitStats0.committedControl::IsControl    246466993                       # Class of control type instructions committed (Count)
system.cpu.commitStats0.committedControl::IsDirectControl    243844930                       # Class of control type instructions committed (Count)
system.cpu.commitStats0.committedControl::IsIndirectControl      2622063                       # Class of control type instructions committed (Count)
system.cpu.commitStats0.committedControl::IsCondControl    233481734                       # Class of control type instructions committed (Count)
system.cpu.commitStats0.committedControl::IsUncondControl     12985259                       # Class of control type instructions committed (Count)
system.cpu.commitStats0.committedControl::IsCall      2621936                       # Class of control type instructions committed (Count)
system.cpu.commitStats0.committedControl::IsReturn      2621931                       # Class of control type instructions committed (Count)
system.cpu.commitStats0.functionCalls         2621936                       # Number of function calls committed (Count)
system.cpu.commitStats0.numCallsReturns       5243867                       # Number of function calls and returns committed (Count)
system.cpu.dcache.demandHits::cpu.data      308298462                       # number of demand (read+write) hits (Count)
system.cpu.dcache.demandHits::total         308298462                       # number of demand (read+write) hits (Count)
system.cpu.dcache.overallHits::cpu.data     308298462                       # number of overall hits (Count)
system.cpu.dcache.overallHits::total        308298462                       # number of overall hits (Count)
system.cpu.dcache.demandMisses::cpu.data      5443685                       # number of demand (read+write) misses (Count)
system.cpu.dcache.demandMisses::total         5443685                       # number of demand (read+write) misses (Count)
system.cpu.dcache.overallMisses::cpu.data      5443685                       # number of overall misses (Count)
system.cpu.dcache.overallMisses::total        5443685                       # number of overall misses (Count)
system.cpu.dcache.demandMissLatency::cpu.data 496670115000                       # number of demand (read+write) miss ticks (Tick)
system.cpu.dcache.demandMissLatency::total 496670115000                       # number of demand (read+write) miss ticks (Tick)
system.cpu.dcache.overallMissLatency::cpu.data 496670115000                       # number of overall miss ticks (Tick)
system.cpu.dcache.overallMissLatency::total 496670115000                       # number of overall miss ticks (Tick)
system.cpu.dcache.demandAccesses::cpu.data    313742147                       # number of demand (read+write) accesses (Count)
system.cpu.dcache.demandAccesses::total     313742147                       # number of demand (read+write) accesses (Count)
system.cpu.dcache.overallAccesses::cpu.data    313742147                       # number of overall (read+write) accesses (Count)
system.cpu.dcache.overallAccesses::total    313742147                       # number of overall (read+write) accesses (Count)
system.cpu.dcache.demandMissRate::cpu.data     0.017351                       # miss rate for demand accesses (Ratio)
system.cpu.dcache.demandMissRate::total      0.017351                       # miss rate for demand accesses (Ratio)
system.cpu.dcache.overallMissRate::cpu.data     0.017351                       # miss rate for overall accesses (Ratio)
system.cpu.dcache.overallMissRate::total     0.017351                       # miss rate for overall accesses (Ratio)
system.cpu.dcache.demandAvgMissLatency::cpu.data 91237.849912                       # average overall miss latency in ticks ((Tick/Count))
system.cpu.dcache.demandAvgMissLatency::total 91237.849912                       # average overall miss latency in ticks ((Tick/Count))
system.cpu.dcache.overallAvgMissLatency::cpu.data 91237.849912                       # average overall miss latency ((Tick/Count))
system.cpu.dcache.overallAvgMissLatency::total 91237.849912                       # average overall miss latency ((Tick/Count))
system.cpu.dcache.blockedCycles::no_mshrs            0                       # number of cycles access was blocked (Cycle)
system.cpu.dcache.blockedCycles::no_wbuffers            0                       # number of cycles access was blocked (Cycle)
system.cpu.dcache.blockedCycles::no_targets            0                       # number of cycles access was blocked (Cycle)
system.cpu.dcache.blockedCauses::no_mshrs            0                       # number of times access was blocked (Count)
system.cpu.dcache.blockedCauses::no_wbuffers            0                       # number of times access was blocked (Count)
system.cpu.dcache.blockedCauses::no_targets            0                       # number of times access was blocked (Count)
system.cpu.dcache.avgBlocked::no_mshrs            nan                       # average number of cycles each access was blocked ((Cycle/Count))
system.cpu.dcache.avgBlocked::no_wbuffers          nan                       # average number of cycles each access was blocked ((Cycle/Count))
system.cpu.dcache.avgBlocked::no_targets          nan                       # average number of cycles each access was blocked ((Cycle/Count))
system.cpu.dcache.writebacks::writebacks      3967549                       # number of writebacks (Count)
system.cpu.dcache.writebacks::total           3967549                       # number of writebacks (Count)
system.cpu.dcache.demandMshrMisses::cpu.data      5443685                       # number of demand (read+write) MSHR misses (Count)
system.cpu.dcache.demandMshrMisses::total      5443685                       # number of demand (read+write) MSHR misses (Count)
system.cpu.dcache.overallMshrMisses::cpu.data      5443685                       # number of overall MSHR misses (Count)
system.cpu.dcache.overallMshrMisses::total      5443685                       # number of overall MSHR misses (Count)
system.cpu.dcache.demandMshrMissLatency::cpu.data 485782745000                       # number of demand (read+write) MSHR miss ticks (Tick)
system.cpu.dcache.demandMshrMissLatency::total 485782745000                       # number of demand (read+write) MSHR miss ticks (Tick)
system.cpu.dcache.overallMshrMissLatency::cpu.data 485782745000                       # number of overall MSHR miss ticks (Tick)
system.cpu.dcache.overallMshrMissLatency::total 485782745000                       # number of overall MSHR miss ticks (Tick)
system.cpu.dcache.demandMshrMissRate::cpu.data     0.017351                       # mshr miss ratio for demand accesses (Ratio)
system.cpu.dcache.demandMshrMissRate::total     0.017351                       # mshr miss ratio for demand accesses (Ratio)
system.cpu.dcache.overallMshrMissRate::cpu.data     0.017351                       # mshr miss ratio for overall accesses (Ratio)
system.cpu.dcache.overallMshrMissRate::total     0.017351                       # mshr miss ratio for overall accesses (Ratio)
system.cpu.dcache.demandAvgMshrMissLatency::cpu.data 89237.849912                       # average overall mshr miss latency ((Tick/Count))
system.cpu.dcache.demandAvgMshrMissLatency::total 89237.849912                       # average overall mshr miss latency ((Tick/Count))
system.cpu.dcache.overallAvgMshrMissLatency::cpu.data 89237.849912                       # average overall mshr miss latency ((Tick/Count))
system.cpu.dcache.overallAvgMshrMissLatency::total 89237.849912                       # average overall mshr miss latency ((Tick/Count))
system.cpu.dcache.replacements                5441642                       # number of replacements (Count)
system.cpu.dcache.LoadLockedReq.hits::cpu.data           39                       # number of LoadLockedReq hits (Count)
system.cpu.dcache.LoadLockedReq.hits::total           39                       # number of LoadLockedReq hits (Count)
system.cpu.dcache.LoadLockedReq.misses::cpu.data            4                       # number of LoadLockedReq misses (Count)
system.cpu.dcache.LoadLockedReq.misses::total            4                       # number of LoadLockedReq misses (Count)
system.cpu.dcache.LoadLockedReq.missLatency::cpu.data       652000                       # number of LoadLockedReq miss ticks (Tick)
system.cpu.dcache.LoadLockedReq.missLatency::total       652000                       # number of LoadLockedReq miss ticks (Tick)
system.cpu.dcache.LoadLockedReq.accesses::cpu.data           43                       # number of LoadLockedReq accesses(hits+misses) (Count)
system.cpu.dcache.LoadLockedReq.accesses::total           43                       # number of LoadLockedReq accesses(hits+misses) (Count)
system.cpu.dcache.LoadLockedReq.missRate::cpu.data     0.093023                       # miss rate for LoadLockedReq accesses (Ratio)
system.cpu.dcache.LoadLockedReq.missRate::total     0.093023                       # miss rate for LoadLockedReq accesses (Ratio)
system.cpu.dcache.LoadLockedReq.avgMissLatency::cpu.data       163000                       # average LoadLockedReq miss latency ((Tick/Count))
system.cpu.dcache.LoadLockedReq.avgMissLatency::total       163000                       # average LoadLockedReq miss latency ((Tick/Count))
system.cpu.dcache.LoadLockedReq.mshrMisses::cpu.data            4                       # number of LoadLockedReq MSHR misses (Count)
system.cpu.dcache.LoadLockedReq.mshrMisses::total            4                       # number of LoadLockedReq MSHR misses (Count)
system.cpu.dcache.LoadLockedReq.mshrMissLatency::cpu.data       644000                       # number of LoadLockedReq MSHR miss ticks (Tick)
system.cpu.dcache.LoadLockedReq.mshrMissLatency::total       644000                       # number of LoadLockedReq MSHR miss ticks (Tick)
system.cpu.dcache.LoadLockedReq.mshrMissRate::cpu.data     0.093023                       # mshr miss rate for LoadLockedReq accesses (Ratio)
system.cpu.dcache.LoadLockedReq.mshrMissRate::total     0.093023                       # mshr miss rate for LoadLockedReq accesses (Ratio)
system.cpu.dcache.LoadLockedReq.avgMshrMissLatency::cpu.data       161000                       # average LoadLockedReq mshr miss latency ((Tick/Count))
system.cpu.dcache.LoadLockedReq.avgMshrMissLatency::total       161000                       # average LoadLockedReq mshr miss latency ((Tick/Count))
system.cpu.dcache.ReadReq.hits::cpu.data    180484804                       # number of ReadReq hits (Count)
system.cpu.dcache.ReadReq.hits::total       180484804                       # number of ReadReq hits (Count)
system.cpu.dcache.ReadReq.misses::cpu.data      2705052                       # number of ReadReq misses (Count)
system.cpu.dcache.ReadReq.misses::total       2705052                       # number of ReadReq misses (Count)
system.cpu.dcache.ReadReq.missLatency::cpu.data 253534261000                       # number of ReadReq miss ticks (Tick)
system.cpu.dcache.ReadReq.missLatency::total 253534261000                       # number of ReadReq miss ticks (Tick)
system.cpu.dcache.ReadReq.accesses::cpu.data    183189856                       # number of ReadReq accesses(hits+misses) (Count)
system.cpu.dcache.ReadReq.accesses::total    183189856                       # number of ReadReq accesses(hits+misses) (Count)
system.cpu.dcache.ReadReq.missRate::cpu.data     0.014766                       # miss rate for ReadReq accesses (Ratio)
system.cpu.dcache.ReadReq.missRate::total     0.014766                       # miss rate for ReadReq accesses (Ratio)
system.cpu.dcache.ReadReq.avgMissLatency::cpu.data 93726.206003                       # average ReadReq miss latency ((Tick/Count))
system.cpu.dcache.ReadReq.avgMissLatency::total 93726.206003                       # average ReadReq miss latency ((Tick/Count))
system.cpu.dcache.ReadReq.mshrMisses::cpu.data      2705052                       # number of ReadReq MSHR misses (Count)
system.cpu.dcache.ReadReq.mshrMisses::total      2705052                       # number of ReadReq MSHR misses (Count)
system.cpu.dcache.ReadReq.mshrMissLatency::cpu.data 248124157000                       # number of ReadReq MSHR miss ticks (Tick)
system.cpu.dcache.ReadReq.mshrMissLatency::total 248124157000                       # number of ReadReq MSHR miss ticks (Tick)
system.cpu.dcache.ReadReq.mshrMissRate::cpu.data     0.014766                       # mshr miss rate for ReadReq accesses (Ratio)
system.cpu.dcache.ReadReq.mshrMissRate::total     0.014766                       # mshr miss rate for ReadReq accesses (Ratio)
system.cpu.dcache.ReadReq.avgMshrMissLatency::cpu.data 91726.206003                       # average ReadReq mshr miss latency ((Tick/Count))
system.cpu.dcache.ReadReq.avgMshrMissLatency::total 91726.206003                       # average ReadReq mshr miss latency ((Tick/Count))
system.cpu.dcache.StoreCondReq.hits::cpu.data           43                       # number of StoreCondReq hits (Count)
system.cpu.dcache.StoreCondReq.hits::total           43                       # number of StoreCondReq hits (Count)
system.cpu.dcache.StoreCondReq.accesses::cpu.data           43                       # number of StoreCondReq accesses(hits+misses) (Count)
system.cpu.dcache.StoreCondReq.accesses::total           43                       # number of StoreCondReq accesses(hits+misses) (Count)
system.cpu.dcache.SwapReq.hits::cpu.data           65                       # number of SwapReq hits (Count)
system.cpu.dcache.SwapReq.hits::total              65                       # number of SwapReq hits (Count)
system.cpu.dcache.SwapReq.misses::cpu.data            1                       # number of SwapReq misses (Count)
system.cpu.dcache.SwapReq.misses::total             1                       # number of SwapReq misses (Count)
system.cpu.dcache.SwapReq.missLatency::cpu.data       103000                       # number of SwapReq miss ticks (Tick)
system.cpu.dcache.SwapReq.missLatency::total       103000                       # number of SwapReq miss ticks (Tick)
system.cpu.dcache.SwapReq.accesses::cpu.data           66                       # number of SwapReq accesses(hits+misses) (Count)
system.cpu.dcache.SwapReq.accesses::total           66                       # number of SwapReq accesses(hits+misses) (Count)
system.cpu.dcache.SwapReq.missRate::cpu.data     0.015152                       # miss rate for SwapReq accesses (Ratio)
system.cpu.dcache.SwapReq.missRate::total     0.015152                       # miss rate for SwapReq accesses (Ratio)
system.cpu.dcache.SwapReq.avgMissLatency::cpu.data       103000                       # average SwapReq miss latency ((Tick/Count))
system.cpu.dcache.SwapReq.avgMissLatency::total       103000                       # average SwapReq miss latency ((Tick/Count))
system.cpu.dcache.SwapReq.mshrMisses::cpu.data            1                       # number of SwapReq MSHR misses (Count)
system.cpu.dcache.SwapReq.mshrMisses::total            1                       # number of SwapReq MSHR misses (Count)
system.cpu.dcache.SwapReq.mshrMissLatency::cpu.data       101000                       # number of SwapReq MSHR miss ticks (Tick)
system.cpu.dcache.SwapReq.mshrMissLatency::total       101000                       # number of SwapReq MSHR miss ticks (Tick)
system.cpu.dcache.SwapReq.mshrMissRate::cpu.data     0.015152                       # mshr miss rate for SwapReq accesses (Ratio)
system.cpu.dcache.SwapReq.mshrMissRate::total     0.015152                       # mshr miss rate for SwapReq accesses (Ratio)
system.cpu.dcache.SwapReq.avgMshrMissLatency::cpu.data       101000                       # average SwapReq mshr miss latency ((Tick/Count))
system.cpu.dcache.SwapReq.avgMshrMissLatency::total       101000                       # average SwapReq mshr miss latency ((Tick/Count))
system.cpu.dcache.WriteReq.hits::cpu.data    127813658                       # number of WriteReq hits (Count)
system.cpu.dcache.WriteReq.hits::total      127813658                       # number of WriteReq hits (Count)
system.cpu.dcache.WriteReq.misses::cpu.data      2738633                       # number of WriteReq misses (Count)
system.cpu.dcache.WriteReq.misses::total      2738633                       # number of WriteReq misses (Count)
system.cpu.dcache.WriteReq.missLatency::cpu.data 243135854000                       # number of WriteReq miss ticks (Tick)
system.cpu.dcache.WriteReq.missLatency::total 243135854000                       # number of WriteReq miss ticks (Tick)
system.cpu.dcache.WriteReq.accesses::cpu.data    130552291                       # number of WriteReq accesses(hits+misses) (Count)
system.cpu.dcache.WriteReq.accesses::total    130552291                       # number of WriteReq accesses(hits+misses) (Count)
system.cpu.dcache.WriteReq.missRate::cpu.data     0.020977                       # miss rate for WriteReq accesses (Ratio)
system.cpu.dcache.WriteReq.missRate::total     0.020977                       # miss rate for WriteReq accesses (Ratio)
system.cpu.dcache.WriteReq.avgMissLatency::cpu.data 88780.005937                       # average WriteReq miss latency ((Tick/Count))
system.cpu.dcache.WriteReq.avgMissLatency::total 88780.005937                       # average WriteReq miss latency ((Tick/Count))
system.cpu.dcache.WriteReq.mshrMisses::cpu.data      2738633                       # number of WriteReq MSHR misses (Count)
system.cpu.dcache.WriteReq.mshrMisses::total      2738633                       # number of WriteReq MSHR misses (Count)
system.cpu.dcache.WriteReq.mshrMissLatency::cpu.data 237658588000                       # number of WriteReq MSHR miss ticks (Tick)
system.cpu.dcache.WriteReq.mshrMissLatency::total 237658588000                       # number of WriteReq MSHR miss ticks (Tick)
system.cpu.dcache.WriteReq.mshrMissRate::cpu.data     0.020977                       # mshr miss rate for WriteReq accesses (Ratio)
system.cpu.dcache.WriteReq.mshrMissRate::total     0.020977                       # mshr miss rate for WriteReq accesses (Ratio)
system.cpu.dcache.WriteReq.avgMshrMissLatency::cpu.data 86780.005937                       # average WriteReq mshr miss latency ((Tick/Count))
system.cpu.dcache.WriteReq.avgMshrMissLatency::total 86780.005937                       # average WriteReq mshr miss latency ((Tick/Count))
system.cpu.dcache.power_state.pwrStateResidencyTicks::UNDEFINED 4344925322000                       # Cumulative time (in ticks) in various power states (Tick)
system.cpu.dcache.tags.tagsInUse          2045.153592                       # Average ticks per tags in use ((Tick/Count))
system.cpu.dcache.tags.totalRefs            313704777                       # Total number of references to valid blocks. (Count)
system.cpu.dcache.tags.sampledRefs            5441642                       # Sample count of references to valid blocks. (Count)
system.cpu.dcache.tags.avgRefs              57.648919                       # Average number of references to valid blocks. ((Count/Count))
system.cpu.dcache.tags.warmupTick              359000                       # The tick when the warmup percentage was hit. (Tick)
system.cpu.dcache.tags.occupancies::cpu.data  2045.153592                       # Average occupied blocks per tick, per requestor ((Count/Tick))
system.cpu.dcache.tags.avgOccs::cpu.data     0.998610                       # Average percentage of cache occupancy ((Ratio/Tick))
system.cpu.dcache.tags.avgOccs::total        0.998610                       # Average percentage of cache occupancy ((Ratio/Tick))
system.cpu.dcache.tags.occupanciesTaskId::1024         2048                       # Occupied blocks per task id (Count)
system.cpu.dcache.tags.ageTaskId_1024::0           28                       # Occupied blocks per task id, per block age (Count)
system.cpu.dcache.tags.ageTaskId_1024::1          169                       # Occupied blocks per task id, per block age (Count)
system.cpu.dcache.tags.ageTaskId_1024::2         1851                       # Occupied blocks per task id, per block age (Count)
system.cpu.dcache.tags.ratioOccsTaskId::1024            1                       # Ratio of occupied blocks and all blocks, per task id (Ratio)
system.cpu.dcache.tags.tagAccesses         2515382082                       # Number of tag accesses (Count)
system.cpu.dcache.tags.dataAccesses        2515382082                       # Number of data accesses (Count)
system.cpu.dcache.tags.power_state.pwrStateResidencyTicks::UNDEFINED 4344925322000                       # Cumulative time (in ticks) in various power states (Tick)
system.cpu.exec_context.thread_0.numMatAluAccesses            0                       # Number of matrix alu accesses (Count)
system.cpu.exec_context.thread_0.numMatInsts            0                       # Number of matrix instructions (Count)
system.cpu.exec_context.thread_0.numIdleCycles     0.001000                       # Number of idle cycles (Cycle)
system.cpu.exec_context.thread_0.numBusyCycles 4344925321.999000                       # Number of busy cycles (Cycle)
system.cpu.exec_context.thread_0.notIdleFraction     1.000000                       # Percentage of non-idle cycles (Ratio)
system.cpu.exec_context.thread_0.idleFraction     0.000000                       # Percentage of idle cycles (Ratio)
system.cpu.executeStats0.numInsts          1186682689                       # Number of executed instructions (Count)
system.cpu.executeStats0.numNop                     0                       # Number of nop insts executed (Count)
system.cpu.executeStats0.numBranches        246466993                       # Number of branches executed (Count)
system.cpu.executeStats0.numLoadInsts       183189899                       # Number of load instructions executed (Count)
system.cpu.executeStats0.numStoreInsts      130552400                       # Number of stores executed (Count)
system.cpu.executeStats0.instRate            0.273119                       # Inst execution rate ((Count/Cycle))
system.cpu.executeStats0.numFpAluAccesses           12                       # Number of float alu accesses (Count)
system.cpu.executeStats0.numFpRegReads             12                       # Number of times the floating registers were read (Count)
system.cpu.executeStats0.numFpRegWrites             0                       # Number of times the floating registers were written (Count)
system.cpu.executeStats0.numIntAluAccesses   1178941348                       # Number of integer alu accesses (Count)
system.cpu.executeStats0.numIntRegReads    1676809478                       # Number of times the integer registers were read (Count)
system.cpu.executeStats0.numIntRegWrites    812285281                       # Number of times the integer registers were written (Count)
system.cpu.executeStats0.numMemRefs         313742299                       # Number of memory refs (Count)
system.cpu.executeStats0.numMiscRegReads           68                       # Number of times the Misc registers were read (Count)
system.cpu.executeStats0.numVecAluAccesses            0                       # Number of vector alu accesses (Count)
system.cpu.executeStats0.numDiscardedOps            0                       # Number of ops (including micro ops) which were discarded before commit (Count)
system.cpu.fetchStats0.numInsts            1186685277                       # Number of instructions fetched (thread level) (Count)
system.cpu.fetchStats0.numOps              1186685332                       # Number of ops (including micro ops) fetched (thread level) (Count)
system.cpu.fetchStats0.fetchRate             0.273120                       # Number of inst fetches per cycle ((Count/Cycle))
system.cpu.fetchStats0.numBranches          246466993                       # Number of branches fetched (Count)
system.cpu.fetchStats0.branchRate            0.056725                       # Number of branch fetches per cycle (Ratio)
system.cpu.fetchStats0.numFetchSuspends             0                       # Number of times Execute suspended instruction fetching (Count)
system.cpu.icache.demandHits::cpu.inst     1615805107                       # number of demand (read+write) hits (Count)
system.cpu.icache.demandHits::total        1615805107                       # number of demand (read+write) hits (Count)
system.cpu.icache.overallHits::cpu.inst    1615805107                       # number of overall hits (Count)
system.cpu.icache.overallHits::total       1615805107                       # number of overall hits (Count)
system.cpu.icache.demandMisses::cpu.inst          419                       # number of demand (read+write) misses (Count)
system.cpu.icache.demandMisses::total             419                       # number of demand (read+write) misses (Count)
system.cpu.icache.overallMisses::cpu.inst          419                       # number of overall misses (Count)
system.cpu.icache.overallMisses::total            419                       # number of overall misses (Count)
system.cpu.icache.demandMissLatency::cpu.inst     46004000                       # number of demand (read+write) miss ticks (Tick)
system.cpu.icache.demandMissLatency::total     46004000                       # number of demand (read+write) miss ticks (Tick)
system.cpu.icache.overallMissLatency::cpu.inst     46004000                       # number of overall miss ticks (Tick)
system.cpu.icache.overallMissLatency::total     46004000                       # number of overall miss ticks (Tick)
system.cpu.icache.demandAccesses::cpu.inst   1615805526                       # number of demand (read+write) accesses (Count)
system.cpu.icache.demandAccesses::total    1615805526                       # number of demand (read+write) accesses (Count)
system.cpu.icache.overallAccesses::cpu.inst   1615805526                       # number of overall (read+write) accesses (Count)
system.cpu.icache.overallAccesses::total   1615805526                       # number of overall (read+write) accesses (Count)
system.cpu.icache.demandMissRate::cpu.inst     0.000000                       # miss rate for demand accesses (Ratio)
system.cpu.icache.demandMissRate::total      0.000000                       # miss rate for demand accesses (Ratio)
system.cpu.icache.overallMissRate::cpu.inst     0.000000                       # miss rate for overall accesses (Ratio)
system.cpu.icache.overallMissRate::total     0.000000                       # miss rate for overall accesses (Ratio)
system.cpu.icache.demandAvgMissLatency::cpu.inst 109794.749403                       # average overall miss latency in ticks ((Tick/Count))
system.cpu.icache.demandAvgMissLatency::total 109794.749403                       # average overall miss latency in ticks ((Tick/Count))
system.cpu.icache.overallAvgMissLatency::cpu.inst 109794.749403                       # average overall miss latency ((Tick/Count))
system.cpu.icache.overallAvgMissLatency::total 109794.749403                       # average overall miss latency ((Tick/Count))
system.cpu.icache.blockedCycles::no_mshrs            0                       # number of cycles access was blocked (Cycle)
system.cpu.icache.blockedCycles::no_wbuffers            0                       # number of cycles access was blocked (Cycle)
system.cpu.icache.blockedCycles::no_targets            0                       # number of cycles access was blocked (Cycle)
system.cpu.icache.blockedCauses::no_mshrs            0                       # number of times access was blocked (Count)
system.cpu.icache.blockedCauses::no_wbuffers            0                       # number of times access was blocked (Count)
system.cpu.icache.blockedCauses::no_targets            0                       # number of times access was blocked (Count)
system.cpu.icache.avgBlocked::no_mshrs            nan                       # average number of cycles each access was blocked ((Cycle/Count))
system.cpu.icache.avgBlocked::no_wbuffers          nan                       # average number of cycles each access was blocked ((Cycle/Count))
system.cpu.icache.avgBlocked::no_targets          nan                       # average number of cycles each access was blocked ((Cycle/Count))
system.cpu.icache.demandMshrMisses::cpu.inst          419                       # number of demand (read+write) MSHR misses (Count)
system.cpu.icache.demandMshrMisses::total          419                       # number of demand (read+write) MSHR misses (Count)
system.cpu.icache.overallMshrMisses::cpu.inst          419                       # number of overall MSHR misses (Count)
system.cpu.icache.overallMshrMisses::total          419                       # number of overall MSHR misses (Count)
system.cpu.icache.demandMshrMissLatency::cpu.inst     45166000                       # number of demand (read+write) MSHR miss ticks (Tick)
system.cpu.icache.demandMshrMissLatency::total     45166000                       # number of demand (read+write) MSHR miss ticks (Tick)
system.cpu.icache.overallMshrMissLatency::cpu.inst     45166000                       # number of overall MSHR miss ticks (Tick)
system.cpu.icache.overallMshrMissLatency::total     45166000                       # number of overall MSHR miss ticks (Tick)
system.cpu.icache.demandMshrMissRate::cpu.inst     0.000000                       # mshr miss ratio for demand accesses (Ratio)
system.cpu.icache.demandMshrMissRate::total     0.000000                       # mshr miss ratio for demand accesses (Ratio)
system.cpu.icache.overallMshrMissRate::cpu.inst     0.000000                       # mshr miss ratio for overall accesses (Ratio)
system.cpu.icache.overallMshrMissRate::total     0.000000                       # mshr miss ratio for overall accesses (Ratio)
system.cpu.icache.demandAvgMshrMissLatency::cpu.inst 107794.749403                       # average overall mshr miss latency ((Tick/Count))
system.cpu.icache.demandAvgMshrMissLatency::total 107794.749403                       # average overall mshr miss latency ((Tick/Count))
system.cpu.icache.overallAvgMshrMissLatency::cpu.inst 107794.749403                       # average overall mshr miss latency ((Tick/Count))
system.cpu.icache.overallAvgMshrMissLatency::total 107794.749403                       # average overall mshr miss latency ((Tick/Count))
system.cpu.icache.replacements                     15                       # number of replacements (Count)
system.cpu.icache.ReadReq.hits::cpu.inst   1615805107                       # number of ReadReq hits (Count)
system.cpu.icache.ReadReq.hits::total      1615805107                       # number of ReadReq hits (Count)
system.cpu.icache.ReadReq.misses::cpu.inst          419                       # number of ReadReq misses (Count)
system.cpu.icache.ReadReq.misses::total           419                       # number of ReadReq misses (Count)
system.cpu.icache.ReadReq.missLatency::cpu.inst     46004000                       # number of ReadReq miss ticks (Tick)
system.cpu.icache.ReadReq.missLatency::total     46004000                       # number of ReadReq miss ticks (Tick)
system.cpu.icache.ReadReq.accesses::cpu.inst   1615805526                       # number of ReadReq accesses(hits+misses) (Count)
system.cpu.icache.ReadReq.accesses::total   1615805526                       # number of ReadReq accesses(hits+misses) (Count)
system.cpu.icache.ReadReq.missRate::cpu.inst     0.000000                       # miss rate for ReadReq accesses (Ratio)
system.cpu.icache.ReadReq.missRate::total     0.000000                       # miss rate for ReadReq accesses (Ratio)
system.cpu.icache.ReadReq.avgMissLatency::cpu.inst 109794.749403                       # average ReadReq miss latency ((Tick/Count))
system.cpu.icache.ReadReq.avgMissLatency::total 109794.749403                       # average ReadReq miss latency ((Tick/Count))
system.cpu.icache.ReadReq.mshrMisses::cpu.inst          419                       # number of ReadReq MSHR misses (Count)
system.cpu.icache.ReadReq.mshrMisses::total          419                       # number of ReadReq MSHR misses (Count)
system.cpu.icache.ReadReq.mshrMissLatency::cpu.inst     45166000                       # number of ReadReq MSHR miss ticks (Tick)
system.cpu.icache.ReadReq.mshrMissLatency::total     45166000                       # number of ReadReq MSHR miss ticks (Tick)
system.cpu.icache.ReadReq.mshrMissRate::cpu.inst     0.000000                       # mshr miss rate for ReadReq accesses (Ratio)
system.cpu.icache.ReadReq.mshrMissRate::total     0.000000                       # mshr miss rate for ReadReq accesses (Ratio)
system.cpu.icache.ReadReq.avgMshrMissLatency::cpu.inst 107794.749403                       # average ReadReq mshr miss latency ((Tick/Count))
system.cpu.icache.ReadReq.avgMshrMissLatency::total 107794.749403                       # average ReadReq mshr miss latency ((Tick/Count))
system.cpu.icache.power_state.pwrStateResidencyTicks::UNDEFINED 4344925322000                       # Cumulative time (in ticks) in various power states (Tick)
system.cpu.icache.tags.tagsInUse           357.995668                       # Average ticks per tags in use ((Tick/Count))
system.cpu.icache.tags.totalRefs                  257                       # Total number of references to valid blocks. (Count)
system.cpu.icache.tags.sampledRefs                 15                       # Sample count of references to valid blocks. (Count)
system.cpu.icache.tags.avgRefs              17.133333                       # Average number of references to valid blocks. ((Count/Count))
system.cpu.icache.tags.warmupTick              115000                       # The tick when the warmup percentage was hit. (Tick)
system.cpu.icache.tags.occupancies::cpu.inst   357.995668                       # Average occupied blocks per tick, per requestor ((Count/Tick))
system.cpu.icache.tags.avgOccs::cpu.inst     0.699210                       # Average percentage of cache occupancy ((Ratio/Tick))
system.cpu.icache.tags.avgOccs::total        0.699210                       # Average percentage of cache occupancy ((Ratio/Tick))
system.cpu.icache.tags.occupanciesTaskId::1024          404                       # Occupied blocks per task id (Count)
system.cpu.icache.tags.ageTaskId_1024::0           40                       # Occupied blocks per task id, per block age (Count)
system.cpu.icache.tags.ageTaskId_1024::1           11                       # Occupied blocks per task id, per block age (Count)
system.cpu.icache.tags.ageTaskId_1024::4          353                       # Occupied blocks per task id, per block age (Count)
system.cpu.icache.tags.ratioOccsTaskId::1024     0.789062                       # Ratio of occupied blocks and all blocks, per task id (Ratio)
system.cpu.icache.tags.tagAccesses        12926444627                       # Number of tag accesses (Count)
system.cpu.icache.tags.dataAccesses       12926444627                       # Number of data accesses (Count)
system.cpu.icache.tags.power_state.pwrStateResidencyTicks::UNDEFINED 4344925322000                       # Cumulative time (in ticks) in various power states (Tick)
system.cpu.mmu.dtb.readHits                         0                       # read hits (Count)
system.cpu.mmu.dtb.readMisses                       0                       # read misses (Count)
system.cpu.mmu.dtb.readAccesses                     0                       # read accesses (Count)
system.cpu.mmu.dtb.writeHits                        0                       # write hits (Count)
system.cpu.mmu.dtb.writeMisses                      0                       # write misses (Count)
system.cpu.mmu.dtb.writeAccesses                    0                       # write accesses (Count)
system.cpu.mmu.dtb.hits                             0                       # Total TLB (read and write) hits (Count)
system.cpu.mmu.dtb.misses                           0                       # Total TLB (read and write) misses (Count)
system.cpu.mmu.dtb.accesses                         0                       # Total TLB (read and write) accesses (Count)
system.cpu.mmu.dtb.walker.num_4kb_walks             0                       # Completed page walks with 4KB pages (Count)
system.cpu.mmu.dtb.walker.num_64kb_walks            0                       # Completed page walks with 64KB pages (Count)
system.cpu.mmu.dtb.walker.num_2mb_walks             0                       # Completed page walks with 2MB pages (Count)
system.cpu.mmu.dtb.walker.power_state.pwrStateResidencyTicks::UNDEFINED 4344925322000                       # Cumulative time (in ticks) in various power states (Tick)
system.cpu.mmu.itb.readHits                         0                       # read hits (Count)
system.cpu.mmu.itb.readMisses                       0                       # read misses (Count)
system.cpu.mmu.itb.readAccesses                     0                       # read accesses (Count)
system.cpu.mmu.itb.writeHits                        0                       # write hits (Count)
system.cpu.mmu.itb.writeMisses                      0                       # write misses (Count)
system.cpu.mmu.itb.writeAccesses                    0                       # write accesses (Count)
system.cpu.mmu.itb.hits                             0                       # Total TLB (read and write) hits (Count)
system.cpu.mmu.itb.misses                           0                       # Total TLB (read and write) misses (Count)
system.cpu.mmu.itb.accesses                         0                       # Total TLB (read and write) accesses (Count)
system.cpu.mmu.itb.walker.num_4kb_walks             0                       # Completed page walks with 4KB pages (Count)
system.cpu.mmu.itb.walker.num_64kb_walks            0                       # Completed page walks with 64KB pages (Count)
system.cpu.mmu.itb.walker.num_2mb_walks             0                       # Completed page walks with 2MB pages (Count)
system.cpu.mmu.itb.walker.power_state.pwrStateResidencyTicks::UNDEFINED 4344925322000                       # Cumulative time (in ticks) in various power states (Tick)
system.cpu.power_state.pwrStateResidencyTicks::ON 4344925322000                       # Cumulative time (in ticks) in various power states (Tick)
system.cpu.thread_0.numInsts               1186682689                       # Number of Instructions committed (Count)
system.cpu.thread_0.numOps                 1186682744                       # Number of Ops committed (Count)
system.cpu.thread_0.numMemRefs              313742299                       # Number of Memory References (Count)
system.cpu.workload.numSyscalls                    22                       # Number of system calls (Count)
system.l2_xbar.transDist::ReadResp            2705475                       # Transaction distribution (Count)
system.l2_xbar.transDist::WritebackDirty      5795833                       # Transaction distribution (Count)
system.l2_xbar.transDist::CleanEvict          2941034                       # Transaction distribution (Count)
system.l2_xbar.transDist::ReadExReq           2738634                       # Transaction distribution (Count)
system.l2_xbar.transDist::ReadExResp          2738634                       # Transaction distribution (Count)
system.l2_xbar.transDist::ReadSharedReq       2705475                       # Transaction distribution (Count)
system.l2_xbar.pktCount_system.cpu.icache.mem_side_port::system.l2cache.cpu_side_port          853                       # Packet count per connected requestor and responder (Count)
system.l2_xbar.pktCount_system.cpu.dcache.mem_side_port::system.l2cache.cpu_side_port     16329022                       # Packet count per connected requestor and responder (Count)
system.l2_xbar.pktCount::total               16329875                       # Packet count per connected requestor and responder (Count)
system.l2_xbar.pktSize_system.cpu.icache.mem_side_port::system.l2cache.cpu_side_port        26816                       # Cumulative packet size per connected requestor and responder (Byte)
system.l2_xbar.pktSize_system.cpu.dcache.mem_side_port::system.l2cache.cpu_side_port    602319296                       # Cumulative packet size per connected requestor and responder (Byte)
system.l2_xbar.pktSize::total               602346112                       # Cumulative packet size per connected requestor and responder (Byte)
system.l2_xbar.snoops                         3295210                       # Total snoops (Count)
system.l2_xbar.snoopTraffic                 117010176                       # Total snoop traffic (Byte)
system.l2_xbar.snoopFanout::samples           8739319                       # Request fanout histogram (Count)
system.l2_xbar.snoopFanout::mean             0.000042                       # Request fanout histogram (Count)
system.l2_xbar.snoopFanout::stdev            0.006471                       # Request fanout histogram (Count)
system.l2_xbar.snoopFanout::underflows              0      0.00%      0.00% # Request fanout histogram (Count)
system.l2_xbar.snoopFanout::0                 8738953    100.00%    100.00% # Request fanout histogram (Count)
system.l2_xbar.snoopFanout::1                     366      0.00%    100.00% # Request fanout histogram (Count)
system.l2_xbar.snoopFanout::2                       0      0.00%    100.00% # Request fanout histogram (Count)
system.l2_xbar.snoopFanout::overflows               0      0.00%    100.00% # Request fanout histogram (Count)
system.l2_xbar.snoopFanout::min_value               0                       # Request fanout histogram (Count)
system.l2_xbar.snoopFanout::max_value               1                       # Request fanout histogram (Count)
system.l2_xbar.snoopFanout::total             8739319                       # Request fanout histogram (Count)
system.l2_xbar.power_state.pwrStateResidencyTicks::UNDEFINED 4344925322000                       # Cumulative time (in ticks) in various power states (Tick)
system.l2_xbar.reqLayer0.occupancy        26755962000                       # Layer occupancy (ticks) (Tick)
system.l2_xbar.reqLayer0.utilization              0.0                       # Layer utilization (Ratio)
system.l2_xbar.respLayer0.occupancy           2095000                       # Layer occupancy (ticks) (Tick)
system.l2_xbar.respLayer0.utilization             0.0                       # Layer utilization (Ratio)
system.l2_xbar.respLayer1.occupancy       27218450000                       # Layer occupancy (ticks) (Tick)
system.l2_xbar.respLayer1.utilization             0.0                       # Layer utilization (Ratio)
system.l2_xbar.snoop_filter.totRequests      10885766                       # Total number of requests made to the snoop filter. (Count)
system.l2_xbar.snoop_filter.hitSingleRequests      5441657                       # Number of requests hitting in the snoop filter with a single holder of the requested data. (Count)
system.l2_xbar.snoop_filter.hitMultiRequests            0                       # Number of requests hitting in the snoop filter with multiple (>1) holders of the requested data. (Count)
system.l2_xbar.snoop_filter.totSnoops             366                       # Total number of snoops made to the snoop filter. (Count)
system.l2_xbar.snoop_filter.hitSingleSnoops          366                       # Number of snoops hitting in the snoop filter with a single holder of the requested data. (Count)
system.l2_xbar.snoop_filter.hitMultiSnoops            0                       # Number of snoops hitting in the snoop filter with multiple (>1) holders of the requested data. (Count)
system.l2cache.demandHits::cpu.data           2132515                       # number of demand (read+write) hits (Count)
system.l2cache.demandHits::total              2132515                       # number of demand (read+write) hits (Count)
system.l2cache.overallHits::cpu.data          2132515                       # number of overall hits (Count)
system.l2cache.overallHits::total             2132515                       # number of overall hits (Count)
system.l2cache.demandMisses::cpu.inst             419                       # number of demand (read+write) misses (Count)
system.l2cache.demandMisses::cpu.data         3311175                       # number of demand (read+write) misses (Count)
system.l2cache.demandMisses::total            3311594                       # number of demand (read+write) misses (Count)
system.l2cache.overallMisses::cpu.inst            419                       # number of overall misses (Count)
system.l2cache.overallMisses::cpu.data        3311175                       # number of overall misses (Count)
system.l2cache.overallMisses::total           3311594                       # number of overall misses (Count)
system.l2cache.demandMissLatency::cpu.inst     43490000                       # number of demand (read+write) miss ticks (Tick)
system.l2cache.demandMissLatency::cpu.data 403812438000                       # number of demand (read+write) miss ticks (Tick)
system.l2cache.demandMissLatency::total  403855928000                       # number of demand (read+write) miss ticks (Tick)
system.l2cache.overallMissLatency::cpu.inst     43490000                       # number of overall miss ticks (Tick)
system.l2cache.overallMissLatency::cpu.data 403812438000                       # number of overall miss ticks (Tick)
system.l2cache.overallMissLatency::total 403855928000                       # number of overall miss ticks (Tick)
system.l2cache.demandAccesses::cpu.inst           419                       # number of demand (read+write) accesses (Count)
system.l2cache.demandAccesses::cpu.data       5443690                       # number of demand (read+write) accesses (Count)
system.l2cache.demandAccesses::total          5444109                       # number of demand (read+write) accesses (Count)
system.l2cache.overallAccesses::cpu.inst          419                       # number of overall (read+write) accesses (Count)
system.l2cache.overallAccesses::cpu.data      5443690                       # number of overall (read+write) accesses (Count)
system.l2cache.overallAccesses::total         5444109                       # number of overall (read+write) accesses (Count)
system.l2cache.demandMissRate::cpu.inst             1                       # miss rate for demand accesses (Ratio)
system.l2cache.demandMissRate::cpu.data      0.608259                       # miss rate for demand accesses (Ratio)
system.l2cache.demandMissRate::total         0.608289                       # miss rate for demand accesses (Ratio)
system.l2cache.overallMissRate::cpu.inst            1                       # miss rate for overall accesses (Ratio)
system.l2cache.overallMissRate::cpu.data     0.608259                       # miss rate for overall accesses (Ratio)
system.l2cache.overallMissRate::total        0.608289                       # miss rate for overall accesses (Ratio)
system.l2cache.demandAvgMissLatency::cpu.inst 103794.749403                       # average overall miss latency in ticks ((Tick/Count))
system.l2cache.demandAvgMissLatency::cpu.data 121954.423430                       # average overall miss latency in ticks ((Tick/Count))
system.l2cache.demandAvgMissLatency::total 121952.125774                       # average overall miss latency in ticks ((Tick/Count))
system.l2cache.overallAvgMissLatency::cpu.inst 103794.749403                       # average overall miss latency ((Tick/Count))
system.l2cache.overallAvgMissLatency::cpu.data 121954.423430                       # average overall miss latency ((Tick/Count))
system.l2cache.overallAvgMissLatency::total 121952.125774                       # average overall miss latency ((Tick/Count))
system.l2cache.blockedCycles::no_mshrs              0                       # number of cycles access was blocked (Cycle)
system.l2cache.blockedCycles::no_wbuffers            0                       # number of cycles access was blocked (Cycle)
system.l2cache.blockedCycles::no_targets            0                       # number of cycles access was blocked (Cycle)
system.l2cache.blockedCauses::no_mshrs              0                       # number of times access was blocked (Count)
system.l2cache.blockedCauses::no_wbuffers            0                       # number of times access was blocked (Count)
system.l2cache.blockedCauses::no_targets            0                       # number of times access was blocked (Count)
system.l2cache.avgBlocked::no_mshrs               nan                       # average number of cycles each access was blocked ((Cycle/Count))
system.l2cache.avgBlocked::no_wbuffers            nan                       # average number of cycles each access was blocked ((Cycle/Count))
system.l2cache.avgBlocked::no_targets             nan                       # average number of cycles each access was blocked ((Cycle/Count))
system.l2cache.writebacks::writebacks         1828284                       # number of writebacks (Count)
system.l2cache.writebacks::total              1828284                       # number of writebacks (Count)
system.l2cache.demandMshrMisses::cpu.inst          419                       # number of demand (read+write) MSHR misses (Count)
system.l2cache.demandMshrMisses::cpu.data      3311175                       # number of demand (read+write) MSHR misses (Count)
system.l2cache.demandMshrMisses::total        3311594                       # number of demand (read+write) MSHR misses (Count)
system.l2cache.overallMshrMisses::cpu.inst          419                       # number of overall MSHR misses (Count)
system.l2cache.overallMshrMisses::cpu.data      3311175                       # number of overall MSHR misses (Count)
system.l2cache.overallMshrMisses::total       3311594                       # number of overall MSHR misses (Count)
system.l2cache.demandMshrMissLatency::cpu.inst     35110000                       # number of demand (read+write) MSHR miss ticks (Tick)
system.l2cache.demandMshrMissLatency::cpu.data 337588938000                       # number of demand (read+write) MSHR miss ticks (Tick)
system.l2cache.demandMshrMissLatency::total 337624048000                       # number of demand (read+write) MSHR miss ticks (Tick)
system.l2cache.overallMshrMissLatency::cpu.inst     35110000                       # number of overall MSHR miss ticks (Tick)
system.l2cache.overallMshrMissLatency::cpu.data 337588938000                       # number of overall MSHR miss ticks (Tick)
system.l2cache.overallMshrMissLatency::total 337624048000                       # number of overall MSHR miss ticks (Tick)
system.l2cache.demandMshrMissRate::cpu.inst            1                       # mshr miss ratio for demand accesses (Ratio)
system.l2cache.demandMshrMissRate::cpu.data     0.608259                       # mshr miss ratio for demand accesses (Ratio)
system.l2cache.demandMshrMissRate::total     0.608289                       # mshr miss ratio for demand accesses (Ratio)
system.l2cache.overallMshrMissRate::cpu.inst            1                       # mshr miss ratio for overall accesses (Ratio)
system.l2cache.overallMshrMissRate::cpu.data     0.608259                       # mshr miss ratio for overall accesses (Ratio)
system.l2cache.overallMshrMissRate::total     0.608289                       # mshr miss ratio for overall accesses (Ratio)
system.l2cache.demandAvgMshrMissLatency::cpu.inst 83794.749403                       # average overall mshr miss latency ((Tick/Count))
[...]
system.mem_ctrl.dram.bytesInstRead::total        26816                       # Number of instructions bytes read from this memory (Byte)
system.mem_ctrl.dram.bytesWritten::writebacks    117010176                       # Number of bytes written to this memory (Byte)
system.mem_ctrl.dram.bytesWritten::total    117010176                       # Number of bytes written to this memory (Byte)
system.mem_ctrl.dram.numReads::cpu.inst           419                       # Number of read requests responded to by this memory (Count)
system.mem_ctrl.dram.numReads::cpu.data       3311175                       # Number of read requests responded to by this memory (Count)
system.mem_ctrl.dram.numReads::total          3311594                       # Number of read requests responded to by this memory (Count)
system.mem_ctrl.dram.numWrites::writebacks      1828284                       # Number of write requests responded to by this memory (Count)
system.mem_ctrl.dram.numWrites::total         1828284                       # Number of write requests responded to by this memory (Count)
system.mem_ctrl.dram.bwRead::cpu.inst            6172                       # Total read bandwidth from this memory ((Byte/Second))
system.mem_ctrl.dram.bwRead::cpu.data        48773036                       # Total read bandwidth from this memory ((Byte/Second))
system.mem_ctrl.dram.bwRead::total           48779208                       # Total read bandwidth from this memory ((Byte/Second))
system.mem_ctrl.dram.bwInstRead::cpu.inst         6172                       # Instruction read bandwidth from this memory ((Byte/Second))
system.mem_ctrl.dram.bwInstRead::total           6172                       # Instruction read bandwidth from this memory ((Byte/Second))
system.mem_ctrl.dram.bwWrite::writebacks     26930308                       # Write bandwidth from this memory ((Byte/Second))
system.mem_ctrl.dram.bwWrite::total          26930308                       # Write bandwidth from this memory ((Byte/Second))
system.mem_ctrl.dram.bwTotal::writebacks     26930308                       # Total bandwidth to/from this memory ((Byte/Second))
system.mem_ctrl.dram.bwTotal::cpu.inst           6172                       # Total bandwidth to/from this memory ((Byte/Second))
system.mem_ctrl.dram.bwTotal::cpu.data       48773036                       # Total bandwidth to/from this memory ((Byte/Second))
system.mem_ctrl.dram.bwTotal::total          75709516                       # Total bandwidth to/from this memory ((Byte/Second))
system.mem_ctrl.dram.readBursts               3311486                       # Number of DRAM read bursts (Count)
system.mem_ctrl.dram.writeBursts              1828267                       # Number of DRAM write bursts (Count)
system.mem_ctrl.dram.perBankRdBursts::0        206898                       # Per bank write bursts (Count)
system.mem_ctrl.dram.perBankRdBursts::1        206894                       # Per bank write bursts (Count)
system.mem_ctrl.dram.perBankRdBursts::2        206858                       # Per bank write bursts (Count)
system.mem_ctrl.dram.perBankRdBursts::3        206937                       # Per bank write bursts (Count)
system.mem_ctrl.dram.perBankRdBursts::4        206962                       # Per bank write bursts (Count)
system.mem_ctrl.dram.perBankRdBursts::5        206871                       # Per bank write bursts (Count)
system.mem_ctrl.dram.perBankRdBursts::6        206924                       # Per bank write bursts (Count)
system.mem_ctrl.dram.perBankRdBursts::7        207827                       # Per bank write bursts (Count)
system.mem_ctrl.dram.perBankRdBursts::8        206904                       # Per bank write bursts (Count)
system.mem_ctrl.dram.perBankRdBursts::9        207902                       # Per bank write bursts (Count)
system.mem_ctrl.dram.perBankRdBursts::10       206250                       # Per bank write bursts (Count)
system.mem_ctrl.dram.perBankRdBursts::11       206860                       # Per bank write bursts (Count)
system.mem_ctrl.dram.perBankRdBursts::12       206850                       # Per bank write bursts (Count)
system.mem_ctrl.dram.perBankRdBursts::13       206848                       # Per bank write bursts (Count)
system.mem_ctrl.dram.perBankRdBursts::14       206850                       # Per bank write bursts (Count)
system.mem_ctrl.dram.perBankRdBursts::15       206851                       # Per bank write bursts (Count)
system.mem_ctrl.dram.perBankWrBursts::0        114176                       # Per bank write bursts (Count)
system.mem_ctrl.dram.perBankWrBursts::1        114176                       # Per bank write bursts (Count)
system.mem_ctrl.dram.perBankWrBursts::2        114182                       # Per bank write bursts (Count)
system.mem_ctrl.dram.perBankWrBursts::3        114224                       # Per bank write bursts (Count)
system.mem_ctrl.dram.perBankWrBursts::4        114185                       # Per bank write bursts (Count)
system.mem_ctrl.dram.perBankWrBursts::5        114176                       # Per bank write bursts (Count)
system.mem_ctrl.dram.perBankWrBursts::6        114187                       # Per bank write bursts (Count)
system.mem_ctrl.dram.perBankWrBursts::7        115150                       # Per bank write bursts (Count)
system.mem_ctrl.dram.perBankWrBursts::8        114188                       # Per bank write bursts (Count)
system.mem_ctrl.dram.perBankWrBursts::9        114824                       # Per bank write bursts (Count)
system.mem_ctrl.dram.perBankWrBursts::10       113919                       # Per bank write bursts (Count)
system.mem_ctrl.dram.perBankWrBursts::11       114176                       # Per bank write bursts (Count)
system.mem_ctrl.dram.perBankWrBursts::12       114176                       # Per bank write bursts (Count)
system.mem_ctrl.dram.perBankWrBursts::13       114176                       # Per bank write bursts (Count)
system.mem_ctrl.dram.perBankWrBursts::14       114176                       # Per bank write bursts (Count)
system.mem_ctrl.dram.perBankWrBursts::15       114176                       # Per bank write bursts (Count)
system.mem_ctrl.dram.totQLat              81496714750                       # Total ticks spent queuing (Tick)
system.mem_ctrl.dram.totBusLat            16557430000                       # Total ticks spent in databus transfers (Tick)
system.mem_ctrl.dram.totMemAccLat        143587077250                       # Total ticks spent from burst creation until serviced by the DRAM (Tick)
system.mem_ctrl.dram.avgQLat                 24610.32                       # Average queueing delay per DRAM burst ((Tick/Count))
system.mem_ctrl.dram.avgBusLat                5000.00                       # Average bus latency per DRAM burst ((Tick/Count))
system.mem_ctrl.dram.avgMemAccLat            43360.32                       # Average memory access latency per DRAM burst ((Tick/Count))
system.mem_ctrl.dram.readRowHits               789200                       # Number of row buffer hits during reads (Count)
system.mem_ctrl.dram.writeRowHits             1626779                       # Number of row buffer hits during writes (Count)
system.mem_ctrl.dram.readRowHitRate             23.83                       # Row buffer hit rate for reads (Ratio)
system.mem_ctrl.dram.writeRowHitRate            88.98                       # Row buffer hit rate for writes (Ratio)
system.mem_ctrl.dram.bytesPerActivate::samples      2723770                       # Bytes accessed per row activation (Byte)
system.mem_ctrl.dram.bytesPerActivate::mean   120.767554                       # Bytes accessed per row activation (Byte)
system.mem_ctrl.dram.bytesPerActivate::gmean    81.760639                       # Bytes accessed per row activation (Byte)
system.mem_ctrl.dram.bytesPerActivate::stdev   189.482228                       # Bytes accessed per row activation (Byte)
system.mem_ctrl.dram.bytesPerActivate::0-127      2296504     84.31%     84.31% # Bytes accessed per row activation (Byte)
system.mem_ctrl.dram.bytesPerActivate::128-255       184881      6.79%     91.10% # Bytes accessed per row activation (Byte)
system.mem_ctrl.dram.bytesPerActivate::256-383        61824      2.27%     93.37% # Bytes accessed per row activation (Byte)
system.mem_ctrl.dram.bytesPerActivate::384-511        24873      0.91%     94.28% # Bytes accessed per row activation (Byte)
system.mem_ctrl.dram.bytesPerActivate::512-639        54391      2.00%     96.28% # Bytes accessed per row activation (Byte)
system.mem_ctrl.dram.bytesPerActivate::640-767         4504      0.17%     96.45% # Bytes accessed per row activation (Byte)
system.mem_ctrl.dram.bytesPerActivate::768-895         5460      0.20%     96.65% # Bytes accessed per row activation (Byte)
system.mem_ctrl.dram.bytesPerActivate::896-1023         7050      0.26%     96.91% # Bytes accessed per row activation (Byte)
system.mem_ctrl.dram.bytesPerActivate::1024-1151        84283      3.09%    100.00% # Bytes accessed per row activation (Byte)
system.mem_ctrl.dram.bytesPerActivate::total      2723770                       # Bytes accessed per row activation (Byte)
system.mem_ctrl.dram.dramBytesRead          211935104                       # Total bytes read (Byte)
system.mem_ctrl.dram.dramBytesWritten       117009088                       # Total bytes written (Byte)
system.mem_ctrl.dram.avgRdBW                48.777617                       # Average DRAM read bandwidth in MiBytes/s ((Byte/Second))
system.mem_ctrl.dram.avgWrBW                26.930057                       # Average DRAM write bandwidth in MiBytes/s ((Byte/Second))
system.mem_ctrl.dram.peakBW                  12800.00                       # Theoretical peak bandwidth in MiByte/s ((Byte/Second))
system.mem_ctrl.dram.busUtil                     0.59                       # Data bus utilization in percentage (Ratio)
system.mem_ctrl.dram.busUtilRead                 0.38                       # Data bus utilization in percentage for reads (Ratio)
system.mem_ctrl.dram.busUtilWrite                0.21                       # Data bus utilization in percentage for writes (Ratio)
system.mem_ctrl.dram.pageHitRate                47.01                       # Row buffer hit rate, read and write combined (Ratio)
system.mem_ctrl.dram.power_state.pwrStateResidencyTicks::UNDEFINED 4344925322000                       # Cumulative time (in ticks) in various power states (Tick)
system.mem_ctrl.dram.rank0.actEnergy       9591361920                       # Energy for activate commands per rank (pJ) (Joule)
system.mem_ctrl.dram.rank0.preEnergy       5097918375                       # Energy for precharge commands per rank (pJ) (Joule)
system.mem_ctrl.dram.rank0.readEnergy     11825060940                       # Energy for read commands per rank (pJ) (Joule)
system.mem_ctrl.dram.rank0.writeEnergy     4773460320                       # Energy for write commands per rank (pJ) (Joule)
system.mem_ctrl.dram.rank0.refreshEnergy 342984486000.000061                       # Energy for refresh commands per rank (pJ) (Joule)
system.mem_ctrl.dram.rank0.actBackEnergy 527084982720                       # Energy for active background per rank (pJ) (Joule)
system.mem_ctrl.dram.rank0.preBackEnergy 1224590285760                       # Energy for precharge background per rank (pJ) (Joule)
system.mem_ctrl.dram.rank0.actPowerDownEnergy            0                       # Energy for active power-down per rank (pJ) (Joule)
system.mem_ctrl.dram.rank0.prePowerDownEnergy            0                       # Energy for precharge power-down per rank (pJ) (Joule)
system.mem_ctrl.dram.rank0.selfRefreshEnergy            0                       # Energy for self refresh per rank (pJ) (Joule)
system.mem_ctrl.dram.rank0.totalEnergy   2125947556035                       # Total energy per rank (pJ) (Joule)
system.mem_ctrl.dram.rank0.averagePower    489.294383                       # Core power per rank (mW) (Watt)
system.mem_ctrl.dram.rank0.totalIdleTime            0                       # Total Idle time Per DRAM Rank (Tick)
system.mem_ctrl.dram.rank0.pwrStateTime::IDLE 3166189838000                       # Time in different power states (Tick)
system.mem_ctrl.dram.rank0.pwrStateTime::REF 145086500000                       # Time in different power states (Tick)
system.mem_ctrl.dram.rank0.pwrStateTime::SREF            0                       # Time in different power states (Tick)
system.mem_ctrl.dram.rank0.pwrStateTime::PRE_PDN            0                       # Time in different power states (Tick)
system.mem_ctrl.dram.rank0.pwrStateTime::ACT 1033648984000                       # Time in different power states (Tick)
system.mem_ctrl.dram.rank0.pwrStateTime::ACT_PDN            0                       # Time in different power states (Tick)
system.mem_ctrl.dram.rank1.actEnergy       9856384440                       # Energy for activate commands per rank (pJ) (Joule)
system.mem_ctrl.dram.rank1.preEnergy       5238788775                       # Energy for precharge commands per rank (pJ) (Joule)
system.mem_ctrl.dram.rank1.readEnergy     11818949100                       # Energy for read commands per rank (pJ) (Joule)
system.mem_ctrl.dram.rank1.writeEnergy     4770093420                       # Energy for write commands per rank (pJ) (Joule)
system.mem_ctrl.dram.rank1.refreshEnergy 342984486000.000061                       # Energy for refresh commands per rank (pJ) (Joule)
system.mem_ctrl.dram.rank1.actBackEnergy 528020087100                       # Energy for active background per rank (pJ) (Joule)
system.mem_ctrl.dram.rank1.preBackEnergy 1223802829440                       # Energy for precharge background per rank (pJ) (Joule)
system.mem_ctrl.dram.rank1.actPowerDownEnergy            0                       # Energy for active power-down per rank (pJ) (Joule)
system.mem_ctrl.dram.rank1.prePowerDownEnergy            0                       # Energy for precharge power-down per rank (pJ) (Joule)
system.mem_ctrl.dram.rank1.selfRefreshEnergy            0                       # Energy for self refresh per rank (pJ) (Joule)
system.mem_ctrl.dram.rank1.totalEnergy   2126491618275                       # Total energy per rank (pJ) (Joule)
system.mem_ctrl.dram.rank1.averagePower    489.419601                       # Core power per rank (mW) (Watt)
system.mem_ctrl.dram.rank1.totalIdleTime            0                       # Total Idle time Per DRAM Rank (Tick)
system.mem_ctrl.dram.rank1.pwrStateTime::IDLE 3163327446000                       # Time in different power states (Tick)
system.mem_ctrl.dram.rank1.pwrStateTime::REF 145086500000                       # Time in different power states (Tick)
system.mem_ctrl.dram.rank1.pwrStateTime::SREF            0                       # Time in different power states (Tick)
system.mem_ctrl.dram.rank1.pwrStateTime::PRE_PDN            0                       # Time in different power states (Tick)
system.mem_ctrl.dram.rank1.pwrStateTime::ACT 1036511376000                       # Time in different power states (Tick)
system.mem_ctrl.dram.rank1.pwrStateTime::ACT_PDN            0                       # Time in different power states (Tick)
system.mem_ctrl.power_state.pwrStateResidencyTicks::UNDEFINED 4344925322000                       # Cumulative time (in ticks) in various power states (Tick)
system.membus.transDist::ReadResp             1639390                       # Transaction distribution (Count)
system.membus.transDist::WritebackDirty       1828284                       # Transaction distribution (Count)
system.membus.transDist::CleanEvict           1466560                       # Transaction distribution (Count)
system.membus.transDist::ReadExReq            1672204                       # Transaction distribution (Count)
system.membus.transDist::ReadExResp           1672204                       # Transaction distribution (Count)
system.membus.transDist::ReadSharedReq        1639390                       # Transaction distribution (Count)
system.membus.pktCount_system.l2cache.mem_side_port::system.mem_ctrl.port      9918032                       # Packet count per connected requestor and responder (Count)
system.membus.pktCount::total                 9918032                       # Packet count per connected requestor and responder (Count)
system.membus.pktSize_system.l2cache.mem_side_port::system.mem_ctrl.port    328952192                       # Cumulative packet size per connected requestor and responder (Byte)
system.membus.pktSize::total                328952192                       # Cumulative packet size per connected requestor and responder (Byte)
system.membus.snoops                                0                       # Total snoops (Count)
system.membus.snoopTraffic                          0                       # Total snoop traffic (Byte)
system.membus.snoopFanout::samples            3311594                       # Request fanout histogram (Count)
system.membus.snoopFanout::mean                     0                       # Request fanout histogram (Count)
system.membus.snoopFanout::stdev                    0                       # Request fanout histogram (Count)
system.membus.snoopFanout::underflows               0      0.00%      0.00% # Request fanout histogram (Count)
system.membus.snoopFanout::0                  3311594    100.00%    100.00% # Request fanout histogram (Count)
system.membus.snoopFanout::1                        0      0.00%    100.00% # Request fanout histogram (Count)
system.membus.snoopFanout::overflows                0      0.00%    100.00% # Request fanout histogram (Count)
system.membus.snoopFanout::min_value                0                       # Request fanout histogram (Count)
system.membus.snoopFanout::max_value                0                       # Request fanout histogram (Count)
system.membus.snoopFanout::total              3311594                       # Request fanout histogram (Count)
system.membus.power_state.pwrStateResidencyTicks::UNDEFINED 4344925322000                       # Cumulative time (in ticks) in various power states (Tick)
system.membus.reqLayer0.occupancy         13919574000                       # Layer occupancy (ticks) (Tick)
system.membus.reqLayer0.utilization               0.0                       # Layer utilization (Ratio)
system.membus.respLayer0.occupancy        18523568750                       # Layer occupancy (ticks) (Tick)
system.membus.respLayer0.utilization              0.0                       # Layer utilization (Ratio)
system.membus.snoop_filter.totRequests        6606438                       # Total number of requests made to the snoop filter. (Count)
system.membus.snoop_filter.hitSingleRequests      3294852                       # Number of requests hitting in the snoop filter with a single holder of the requested data. (Count)
system.membus.snoop_filter.hitMultiRequests            0                       # Number of requests hitting in the snoop filter with multiple (>1) holders of the requested data. (Count)
system.membus.snoop_filter.totSnoops                0                       # Total number of snoops made to the snoop filter. (Count)
system.membus.snoop_filter.hitSingleSnoops            0                       # Number of snoops hitting in the snoop filter with a single holder of the requested data. (Count)
system.membus.snoop_filter.hitMultiSnoops            0                       # Number of snoops hitting in the snoop filter with multiple (>1) holders of the requested data. (Count)
system.workload.inst.arm                            0                       # number of arm instructions executed (Count)
system.workload.inst.quiesce                        0                       # number of quiesce instructions executed (Count)

---------- End Simulation Statistics   ----------
