
---------- Begin Simulation Statistics ----------
simSeconds                                   2.275223                       # Number of seconds simulated (Second)
simTicks                                 2275222743000                       # Number of ticks simulated (Tick)
finalTick                                2275222743000                       # Number of ticks from beginning of simulation (restored from checkpoints and never reset) (Tick)
simFreq                                  1000000000000                       # The number of ticks per simulated second ((Tick/Second))
hostSeconds                                    170.89                       # Real time elapsed on the host (Second)
hostTickRate                              13313798410                       # The number of ticks simulated per host second (ticks/s) ((Tick/Second))
hostMemory                                     688008                       # Number of bytes of host memory used (Byte)
simInsts                                    219559684                       # Number of instructions simulated (Count)
simOps                                      219559699                       # Number of ops (including micro ops) simulated (Count)
hostInstRate                                  1284784                       # Simulator instruction rate (inst/s) ((Count/Second))
hostOpRate                                    1284784                       # Simulator op (including micro ops) rate (op/s) ((Count/Second))
system.clk_domain.clock                          1000                       # Clock period in ticks (Tick)
system.clk_domain.voltage_domain.voltage            1                       # Voltage in Volts (Volt)
system.cpu.numCycles                       2275222743                       # Number of cpu cycles simulated (Cycle)
system.cpu.cpi                              10.362662                       # CPI: cycles per instruction (core level) ((Cycle/Count))
system.cpu.ipc                               0.096500                       # IPC: instructions per cycle (core level) ((Count/Cycle))
system.cpu.numWorkItemsStarted                      0                       # Number of work items this cpu started (Count)
system.cpu.numWorkItemsCompleted                    0                       # Number of work items this cpu completed (Count)
system.cpu.issuedInstType_0::No_OpClass            32      0.00%      0.00% # Number of insts issued per FU, per thread (Count)
system.cpu.issuedInstType_0::IntAlu         168830645     76.90%     76.90% # Number of insts issued per FU, per thread (Count)
system.cpu.issuedInstType_0::IntMult         16777219      7.64%     84.54% # Number of insts issued per FU, per thread (Count)
system.cpu.issuedInstType_0::IntDiv            131124      0.06%     84.60% # Number of insts issued per FU, per thread (Count)
system.cpu.issuedInstType_0::FloatAdd               0      0.00%     84.60% # Number of insts issued per FU, per thread (Count)
system.cpu.issuedInstType_0::FloatCmp               0      0.00%     84.60% # Number of insts issued per FU, per thread (Count)
system.cpu.issuedInstType_0::FloatCvt               0      0.00%     84.60% # Number of insts issued per FU, per thread (Count)
system.cpu.issuedInstType_0::FloatMult              0      0.00%     84.60% # Number of insts issued per FU, per thread (Count)
system.cpu.issuedInstType_0::FloatMultAcc            0      0.00%     84.60% # Number of insts issued per FU, per thread (Count)
system.cpu.issuedInstType_0::FloatDiv               0      0.00%     84.60% # Number of insts issued per FU, per thread (Count)
system.cpu.issuedInstType_0::FloatMisc              0      0.00%     84.60% # Number of insts issued per FU, per thread (Count)
system.cpu.issuedInstType_0::FloatSqrt              0      0.00%     84.60% # Number of insts issued per FU, per thread (Count)
system.cpu.issuedInstType_0::SimdAdd                0      0.00%     84.60% # Number of insts issued per FU, per thread (Count)
system.cpu.issuedInstType_0::SimdAddAcc             0      0.00%     84.60% # Number of insts issued per FU, per thread (Count)
system.cpu.issuedInstType_0::SimdAlu                0      0.00%     84.60% # Number of insts issued per FU, per thread (Count)
system.cpu.issuedInstType_0::SimdCmp                0      0.00%     84.60% # Number of insts issued per FU, per thread (Count)
system.cpu.issuedInstType_0::SimdCvt                0      0.00%     84.60% # Number of insts issued per FU, per thread (Count)
system.cpu.issuedInstType_0::SimdMisc               0      0.00%     84.60% # Number of insts issued per FU, per thread (Count)
system.cpu.issuedInstType_0::SimdMult               0      0.00%     84.60% # Number of insts issued per FU, per thread (Count)
system.cpu.issuedInstType_0::SimdMultAcc            0      0.00%     84.60% # Number of insts issued per FU, per thread (Count)
system.cpu.issuedInstType_0::SimdMatMultAcc            0      0.00%     84.60% # Number of insts issued per FU, per thread (Count)
system.cpu.issuedInstType_0::SimdShift              0      0.00%     84.60% # Number of insts issued per FU, per thread (Count)
system.cpu.issuedInstType_0::SimdShiftAcc            0      0.00%     84.60% # Number of insts issued per FU, per thread (Count)
system.cpu.issuedInstType_0::SimdDiv                0      0.00%     84.60% # Number of insts issued per FU, per thread (Count)
system.cpu.issuedInstType_0::SimdSqrt               0      0.00%     84.60% # Number of insts issued per FU, per thread (Count)
system.cpu.issuedInstType_0::SimdFloatAdd            0      0.00%     84.60% # Number of insts issued per FU, per thread (Count)
system.cpu.issuedInstType_0::SimdFloatAlu            0      0.00%     84.60% # Number of insts issued per FU, per thread (Count)
system.cpu.issuedInstType_0::SimdFloatCmp            0      0.00%     84.60% # Number of insts issued per FU, per thread (Count)
system.cpu.issuedInstType_0::SimdFloatCvt            0      0.00%     84.60% # Number of insts issued per FU, per thread (Count)
system.cpu.issuedInstType_0::SimdFloatDiv            0      0.00%     84.60% # Number of insts issued per FU, per thread (Count)
system.cpu.issuedInstType_0::SimdFloatMisc            0      0.00%     84.60% # Number of insts issued per FU, per thread (Count)
system.cpu.issuedInstType_0::SimdFloatMult            0      0.00%     84.60% # Number of insts issued per FU, per thread (Count)
system.cpu.issuedInstType_0::SimdFloatMultAcc            0      0.00%     84.60% # Number of insts issued per FU, per thread (Count)
system.cpu.issuedInstType_0::SimdFloatMatMultAcc            0      0.00%     84.60% # Number of insts issued per FU, per thread (Count)
system.cpu.issuedInstType_0::SimdFloatSqrt            0      0.00%     84.60% # Number of insts issued per FU, per thread (Count)
system.cpu.issuedInstType_0::SimdReduceAdd            0      0.00%     84.60% # Number of insts issued per FU, per thread (Count)
system.cpu.issuedInstType_0::SimdReduceAlu            0      0.00%     84.60% # Number of insts issued per FU, per thread (Count)
system.cpu.issuedInstType_0::SimdReduceCmp            0      0.00%     84.60% # Number of insts issued per FU, per thread (Count)
system.cpu.issuedInstType_0::SimdFloatReduceAdd            0      0.00%     84.60% # Number of insts issued per FU, per thread (Count)
system.cpu.issuedInstType_0::SimdFloatReduceCmp            0      0.00%     84.60% # Number of insts issued per FU, per thread (Count)
system.cpu.issuedInstType_0::SimdAes                0      0.00%     84.60% # Number of insts issued per FU, per thread (Count)
system.cpu.issuedInstType_0::SimdAesMix             0      0.00%     84.60% # Number of insts issued per FU, per thread (Count)
system.cpu.issuedInstType_0::SimdSha1Hash            0      0.00%     84.60% # Number of insts issued per FU, per thread (Count)
system.cpu.issuedInstType_0::SimdSha1Hash2            0      0.00%     84.60% # Number of insts issued per FU, per thread (Count)
system.cpu.issuedInstType_0::SimdSha256Hash            0      0.00%     84.60% # Number of insts issued per FU, per thread (Count)
system.cpu.issuedInstType_0::SimdSha256Hash2            0      0.00%     84.60% # Number of insts issued per FU, per thread (Count)
system.cpu.issuedInstType_0::SimdShaSigma2            0      0.00%     84.60% # Number of insts issued per FU, per thread (Count)
system.cpu.issuedInstType_0::SimdShaSigma3            0      0.00%     84.60% # Number of insts issued per FU, per thread (Count)
system.cpu.issuedInstType_0::SimdSha3               0      0.00%     84.60% # Number of insts issued per FU, per thread (Count)
system.cpu.issuedInstType_0::SimdSm4e               0      0.00%     84.60% # Number of insts issued per FU, per thread (Count)
system.cpu.issuedInstType_0::SimdCrc                0      0.00%     84.60% # Number of insts issued per FU, per thread (Count)
system.cpu.issuedInstType_0::SimdPredAlu            0      0.00%     84.60% # Number of insts issued per FU, per thread (Count)
system.cpu.issuedInstType_0::SimdDotProd            0      0.00%     84.60% # Number of insts issued per FU, per thread (Count)
system.cpu.issuedInstType_0::Matrix                 0      0.00%     84.60% # Number of insts issued per FU, per thread (Count)
system.cpu.issuedInstType_0::MatrixMov              0      0.00%     84.60% # Number of insts issued per FU, per thread (Count)
system.cpu.issuedInstType_0::MatrixOP               0      0.00%     84.60% # Number of insts issued per FU, per thread (Count)
system.cpu.issuedInstType_0::MemRead         33556619     15.28%     99.88% # Number of insts issued per FU, per thread (Count)
system.cpu.issuedInstType_0::MemWrite          264048      0.12%    100.00% # Number of insts issued per FU, per thread (Count)
system.cpu.issuedInstType_0::FloatMemRead            0      0.00%    100.00% # Number of insts issued per FU, per thread (Count)
system.cpu.issuedInstType_0::FloatMemWrite           12      0.00%    100.00% # Number of insts issued per FU, per thread (Count)
system.cpu.issuedInstType_0::InstPrefetch            0      0.00%    100.00% # Number of insts issued per FU, per thread (Count)
system.cpu.issuedInstType_0::SimdUnitStrideLoad            0      0.00%    100.00% # Number of insts issued per FU, per thread (Count)
system.cpu.issuedInstType_0::SimdUnitStrideStore            0      0.00%    100.00% # Number of insts issued per FU, per thread (Count)
system.cpu.issuedInstType_0::SimdUnitStrideMaskLoad            0      0.00%    100.00% # Number of insts issued per FU, per thread (Count)
system.cpu.issuedInstType_0::SimdUnitStrideMaskStore            0      0.00%    100.00% # Number of insts issued per FU, per thread (Count)
system.cpu.issuedInstType_0::SimdStridedLoad            0      0.00%    100.00% # Number of insts issued per FU, per thread (Count)
system.cpu.issuedInstType_0::SimdStridedStore            0      0.00%    100.00% # Number of insts issued per FU, per thread (Count)
system.cpu.issuedInstType_0::SimdIndexedLoad            0      0.00%    100.00% # Number of insts issued per FU, per thread (Count)
system.cpu.issuedInstType_0::SimdIndexedStore            0      0.00%    100.00% # Number of insts issued per FU, per thread (Count)
system.cpu.issuedInstType_0::SimdWholeRegisterLoad            0      0.00%    100.00% # Number of insts issued per FU, per thread (Count)
system.cpu.issuedInstType_0::SimdWholeRegisterStore            0      0.00%    100.00% # Number of insts issued per FU, per thread (Count)
system.cpu.issuedInstType_0::SimdUnitStrideFaultOnlyFirstLoad            0      0.00%    100.00% # Number of insts issued per FU, per thread (Count)
system.cpu.issuedInstType_0::SimdUnitStrideSegmentedLoad            0      0.00%    100.00% # Number of insts issued per FU, per thread (Count)
system.cpu.issuedInstType_0::SimdUnitStrideSegmentedStore            0      0.00%    100.00% # Number of insts issued per FU, per thread (Count)
system.cpu.issuedInstType_0::SimdUnitStrideSegmentedFaultOnlyFirstLoad            0      0.00%    100.00% # Number of insts issued per FU, per thread (Count)
system.cpu.issuedInstType_0::SimdStrideSegmentedLoad            0      0.00%    100.00% # Number of insts issued per FU, per thread (Count)
system.cpu.issuedInstType_0::SimdStrideSegmentedStore            0      0.00%    100.00% # Number of insts issued per FU, per thread (Count)
system.cpu.issuedInstType_0::SimdExt                0      0.00%    100.00% # Number of insts issued per FU, per thread (Count)
system.cpu.issuedInstType_0::SimdFloatExt            0      0.00%    100.00% # Number of insts issued per FU, per thread (Count)
system.cpu.issuedInstType_0::SimdConfig             0      0.00%    100.00% # Number of insts issued per FU, per thread (Count)
system.cpu.issuedInstType_0::SimdBf16Add            0      0.00%    100.00% # Number of insts issued per FU, per thread (Count)
system.cpu.issuedInstType_0::SimdBf16Cmp            0      0.00%    100.00% # Number of insts issued per FU, per thread (Count)
system.cpu.issuedInstType_0::SimdBf16Cvt            0      0.00%    100.00% # Number of insts issued per FU, per thread (Count)
system.cpu.issuedInstType_0::SimdBf16DotProd            0      0.00%    100.00% # Number of insts issued per FU, per thread (Count)
system.cpu.issuedInstType_0::SimdBf16MatMultAcc            0      0.00%    100.00% # Number of insts issued per FU, per thread (Count)
system.cpu.issuedInstType_0::SimdBf16Mult            0      0.00%    100.00% # Number of insts issued per FU, per thread (Count)
system.cpu.issuedInstType_0::SimdBf16MultAcc            0      0.00%    100.00% # Number of insts issued per FU, per thread (Count)
system.cpu.issuedInstType_0::Bf16Cvt                0      0.00%    100.00% # Number of insts issued per FU, per thread (Count)
system.cpu.issuedInstType_0::System                 0      0.00%    100.00% # Number of insts issued per FU, per thread (Count)
system.cpu.issuedInstType_0::total          219559699                       # Number of insts issued per FU, per thread (Count)
system.cpu.commitStats0.numInsts            219559684                       # Number of instructions committed (thread level) (Count)
system.cpu.commitStats0.numOps              219559699                       # Number of ops (including micro ops) committed (thread level) (Count)
system.cpu.commitStats0.numInstsNotNOP      219559684                       # Number of instructions committed excluding NOPs or prefetches (Count)
system.cpu.commitStats0.numOpsNotNOP        219559699                       # Number of Ops (including micro ops) Simulated (Count)
system.cpu.commitStats0.numUserInsts        219559684                       # Numbrer of instructions committed in user mode (Count)
system.cpu.commitStats0.numUserOps          219559699                       # Number of ops committed in user mode (Count)
system.cpu.commitStats0.ratioUserInsts              1                       # Ratio of instructions committed in user mode (Ratio)
system.cpu.commitStats0.ratioUserOps                1                       # Ratio of ops committed in user mode (Ratio)
system.cpu.commitStats0.cpi                 10.362662                       # CPI: cycles per instruction (thread level) ((Cycle/Count))
system.cpu.commitStats0.ipc                  0.096500                       # IPC: instructions per cycle (thread level) ((Count/Cycle))
system.cpu.commitStats0.numMemRefs           33820679                       # Number of memory references committed (Count)
system.cpu.commitStats0.numFpInsts                 12                       # Number of float instructions (Count)
system.cpu.commitStats0.numIntInsts         219559564                       # Number of integer instructions (Count)
system.cpu.commitStats0.numLoadInsts         33556593                       # Number of load instructions (Count)
system.cpu.commitStats0.numStoreInsts          264086                       # Number of store instructions (Count)
system.cpu.commitStats0.numVecInsts                 0                       # Number of vector instructions (Count)
system.cpu.commitStats0.committedInstType::No_OpClass           32      0.00%      0.00% # Class of committed instruction. (Count)
system.cpu.commitStats0.committedInstType::IntAlu    168830645     76.90%     76.90% # Class of committed instruction. (Count)
system.cpu.commitStats0.committedInstType::IntMult     16777219      7.64%     84.54% # Class of committed instruction. (Count)
system.cpu.commitStats0.committedInstType::IntDiv       131124      0.06%     84.60% # Class of committed instruction. (Count)
system.cpu.commitStats0.committedInstType::FloatAdd            0      0.00%     84.60% # Class of committed instruction. (Count)
system.cpu.commitStats0.committedInstType::FloatCmp            0      0.00%     84.60% # Class of committed instruction. (Count)
system.cpu.commitStats0.committedInstType::FloatCvt            0      0.00%     84.60% # Class of committed instruction. (Count)
system.cpu.commitStats0.committedInstType::FloatMult            0      0.00%     84.60% # Class of committed instruction. (Count)
system.cpu.commitStats0.committedInstType::FloatMultAcc            0      0.00%     84.60% # Class of committed instruction. (Count)
system.cpu.commitStats0.committedInstType::FloatDiv            0      0.00%     84.60% # Class of committed instruction. (Count)
system.cpu.commitStats0.committedInstType::FloatMisc            0      0.00%     84.60% # Class of committed instruction. (Count)
system.cpu.commitStats0.committedInstType::FloatSqrt            0      0.00%     84.60% # Class of committed instruction. (Count)
system.cpu.commitStats0.committedInstType::SimdAdd            0      0.00%     84.60% # Class of committed instruction. (Count)
system.cpu.commitStats0.committedInstType::SimdAddAcc            0      0.00%     84.60% # Class of committed instruction. (Count)
system.cpu.commitStats0.committedInstType::SimdAlu            0      0.00%     84.60% # Class of committed instruction. (Count)
system.cpu.commitStats0.committedInstType::SimdCmp            0      0.00%     84.60% # Class of committed instruction. (Count)
system.cpu.commitStats0.committedInstType::SimdCvt            0      0.00%     84.60% # Class of committed instruction. (Count)
system.cpu.commitStats0.committedInstType::SimdMisc            0      0.00%     84.60% # Class of committed instruction. (Count)
system.cpu.commitStats0.committedInstType::SimdMult            0      0.00%     84.60% # Class of committed instruction. (Count)
system.cpu.commitStats0.committedInstType::SimdMultAcc            0      0.00%     84.60% # Class of committed instruction. (Count)
system.cpu.commitStats0.committedInstType::SimdMatMultAcc            0      0.00%     84.60% # Class of committed instruction. (Count)
system.cpu.commitStats0.committedInstType::SimdShift            0      0.00%     84.60% # Class of committed instruction. (Count)
system.cpu.commitStats0.committedInstType::SimdShiftAcc            0      0.00%     84.60% # Class of committed instruction. (Count)
system.cpu.commitStats0.committedInstType::SimdDiv            0      0.00%     84.60% # Class of committed instruction. (Count)
system.cpu.commitStats0.committedInstType::SimdSqrt            0      0.00%     84.60% # Class of committed instruction. (Count)
system.cpu.commitStats0.committedInstType::SimdFloatAdd            0      0.00%     84.60% # Class of committed instruction. (Count)
system.cpu.commitStats0.committedInstType::SimdFloatAlu            0      0.00%     84.60% # Class of committed instruction. (Count)
system.cpu.commitStats0.committedInstType::SimdFloatCmp            0      0.00%     84.60% # Class of committed instruction. (Count)
system.cpu.commitStats0.committedInstType::SimdFloatCvt            0      0.00%     84.60% # Class of committed instruction. (Count)
system.cpu.commitStats0.committedInstType::SimdFloatDiv            0      0.00%     84.60% # Class of committed instruction. (Count)
system.cpu.commitStats0.committedInstType::SimdFloatMisc            0      0.00%     84.60% # Class of committed instruction. (Count)
system.cpu.commitStats0.committedInstType::SimdFloatMult            0      0.00%     84.60% # Class of committed instruction. (Count)
system.cpu.commitStats0.committedInstType::SimdFloatMultAcc            0      0.00%     84.60% # Class of committed instruction. (Count)
system.cpu.commitStats0.committedInstType::SimdFloatMatMultAcc            0      0.00%     84.60% # Class of committed instruction. (Count)
system.cpu.commitStats0.committedInstType::SimdFloatSqrt            0      0.00%     84.60% # Class of committed instruction. (Count)
system.cpu.commitStats0.committedInstType::SimdReduceAdd            0      0.00%     84.60% # Class of committed instruction. (Count)
system.cpu.commitStats0.committedInstType::SimdReduceAlu            0      0.00%     84.60% # Class of committed instruction. (Count)
system.cpu.commitStats0.committedInstType::SimdReduceCmp            0      0.00%     84.60% # Class of committed instruction. (Count)
system.cpu.commitStats0.committedInstType::SimdFloatReduceAdd            0      0.00%     84.60% # Class of committed instruction. (Count)
system.cpu.commitStats0.committedInstType::SimdFloatReduceCmp            0      0.00%     84.60% # Class of committed instruction. (Count)
system.cpu.commitStats0.committedInstType::SimdAes            0      0.00%     84.60% # Class of committed instruction. (Count)
system.cpu.commitStats0.committedInstType::SimdAesMix            0      0.00%     84.60% # Class of committed instruction. (Count)
system.cpu.commitStats0.committedInstType::SimdSha1Hash            0      0.00%     84.60% # Class of committed instruction. (Count)
system.cpu.commitStats0.committedInstType::SimdSha1Hash2            0      0.00%     84.60% # Class of committed instruction. (Count)
system.cpu.commitStats0.committedInstType::SimdSha256Hash            0      0.00%     84.60% # Class of committed instruction. (Count)
system.cpu.commitStats0.committedInstType::SimdSha256Hash2            0      0.00%     84.60% # Class of committed instruction. (Count)
system.cpu.commitStats0.committedInstType::SimdShaSigma2            0      0.00%     84.60% # Class of committed instruction. (Count)
system.cpu.commitStats0.committedInstType::SimdShaSigma3            0      0.00%     84.60% # Class of committed instruction. (Count)
system.cpu.commitStats0.committedInstType::SimdSha3            0      0.00%     84.60% # Class of committed instruction. (Count)
system.cpu.commitStats0.committedInstType::SimdSm4e            0      0.00%     84.60% # Class of committed instruction. (Count)
system.cpu.commitStats0.committedInstType::SimdCrc            0      0.00%     84.60% # Class of committed instruction. (Count)
system.cpu.commitStats0.committedInstType::SimdPredAlu            0      0.00%     84.60% # Class of committed instruction. (Count)
system.cpu.commitStats0.committedInstType::SimdDotProd            0      0.00%     84.60% # Class of committed instruction. (Count)
system.cpu.commitStats0.committedInstType::Matrix            0      0.00%     84.60% # Class of committed instruction. (Count)
system.cpu.commitStats0.committedInstType::MatrixMov            0      0.00%     84.60% # Class of committed instruction. (Count)
system.cpu.commitStats0.committedInstType::MatrixOP            0      0.00%     84.60% # Class of committed instruction. (Count)
system.cpu.commitStats0.committedInstType::MemRead     33556619     15.28%     99.88% # Class of committed instruction. (Count)
system.cpu.commitStats0.committedInstType::MemWrite       264048      0.12%    100.00% # Class of committed instruction. (Count)
system.cpu.commitStats0.committedInstType::FloatMemRead            0      0.00%    100.00% # Class of committed instruction. (Count)
system.cpu.commitStats0.committedInstType::FloatMemWrite           12      0.00%    100.00% # Class of committed instruction. (Count)
system.cpu.commitStats0.committedInstType::InstPrefetch            0      0.00%    100.00% # Class of committed instruction. (Count)
system.cpu.commitStats0.committedInstType::SimdUnitStrideLoad            0      0.00%    100.00% # Class of committed instruction. (Count)
system.cpu.commitStats0.committedInstType::SimdUnitStrideStore            0      0.00%    100.00% # Class of committed instruction. (Count)
system.cpu.commitStats0.committedInstType::SimdUnitStrideMaskLoad            0      0.00%    100.00% # Class of committed instruction. (Count)
system.cpu.commitStats0.committedInstType::SimdUnitStrideMaskStore            0      0.00%    100.00% # Class of committed instruction. (Count)
system.cpu.commitStats0.committedInstType::SimdStridedLoad            0      0.00%    100.00% # Class of committed instruction. (Count)
system.cpu.commitStats0.committedInstType::SimdStridedStore            0      0.00%    100.00% # Class of committed instruction. (Count)
system.cpu.commitStats0.committedInstType::SimdIndexedLoad            0      0.00%    100.00% # Class of committed instruction. (Count)
system.cpu.commitStats0.committedInstType::SimdIndexedStore            0      0.00%    100.00% # Class of committed instruction. (Count)
system.cpu.commitStats0.committedInstType::SimdWholeRegisterLoad            0      0.00%    100.00% # Class of committed instruction. (Count)
system.cpu.commitStats0.committedInstType::SimdWholeRegisterStore            0      0.00%    100.00% # Class of committed instruction. (Count)
system.cpu.commitStats0.committedInstType::SimdUnitStrideFaultOnlyFirstLoad            0      0.00%    100.00% # Class of committed instruction. (Count)
system.cpu.commitStats0.committedInstType::SimdUnitStrideSegmentedLoad            0      0.00%    100.00% # Class of committed instruction. (Count)
system.cpu.commitStats0.committedInstType::SimdUnitStrideSegmentedStore            0      0.00%    100.00% # Class of committed instruction. (Count)
system.cpu.commitStats0.committedInstType::SimdUnitStrideSegmentedFaultOnlyFirstLoad            0      0.00%    100.00% # Class of committed instruction. (Count)
system.cpu.commitStats0.committedInstType::SimdStrideSegmentedLoad            0      0.00%    100.00% # Class of committed instruction. (Count)
system.cpu.commitStats0.committedInstType::SimdStrideSegmentedStore            0      0.00%    100.00% # Class of committed instruction. (Count)
system.cpu.commitStats0.committedInstType::SimdExt            0      0.00%    100.00% # Class of committed instruction. (Count)
system.cpu.commitStats0.committedInstType::SimdFloatExt            0      0.00%    100.00% # Class of committed instruction. (Count)
system.cpu.commitStats0.committedInstType::SimdConfig            0      0.00%    100.00% # Class of committed instruction. (Count)
system.cpu.commitStats0.committedInstType::SimdBf16Add            0      0.00%    100.00% # Class of committed instruction. (Count)
system.cpu.commitStats0.committedInstType::SimdBf16Cmp            0      0.00%    100.00% # Class of committed instruction. (Count)
system.cpu.commitStats0.committedInstType::SimdBf16Cvt            0      0.00%    100.00% # Class of committed instruction. (Count)
system.cpu.commitStats0.committedInstType::SimdBf16DotProd            0      0.00%    100.00% # Class of committed instruction. (Count)
system.cpu.commitStats0.committedInstType::SimdBf16MatMultAcc            0      0.00%    100.00% # Class of committed instruction. (Count)
system.cpu.commitStats0.committedInstType::SimdBf16Mult            0      0.00%    100.00% # Class of committed instruction. (Count)
system.cpu.commitStats0.committedInstType::SimdBf16MultAcc            0      0.00%    100.00% # Class of committed instruction. (Count)
system.cpu.commitStats0.committedInstType::Bf16Cvt            0      0.00%    100.00% # Class of committed instruction. (Count)
system.cpu.commitStats0.committedInstType::System            0      0.00%    100.00% # Class of committed instruction. (Count)
system.cpu.commitStats0.committedInstType::total    219559699                       # Class of committed instruction. (Count)
system.cpu.commitStats0.committedControl::IsControl     16911137                       # Class of control type instructions committed (Count)
system.cpu.commitStats0.committedControl::IsDirectControl     16910879                       # Class of control type instructions committed (Count)
system.cpu.commitStats0.committedControl::IsIndirectControl          258                       # Class of control type instructions committed (Count)
system.cpu.commitStats0.committedControl::IsCondControl     16910578                       # Class of control type instructions committed (Count)
system.cpu.commitStats0.committedControl::IsUncondControl          559                       # Class of control type instructions committed (Count)
system.cpu.commitStats0.committedControl::IsCall          212                       # Class of control type instructions committed (Count)
system.cpu.commitStats0.committedControl::IsReturn          207                       # Class of control type instructions committed (Count)
system.cpu.commitStats0.functionCalls             212                       # Number of function calls committed (Count)
system.cpu.commitStats0.numCallsReturns           419                       # Number of function calls and returns committed (Count)
system.cpu.dcache.demandHits::cpu.data       16893325                       # number of demand (read+write) hits (Count)
system.cpu.dcache.demandHits::total          16893325                       # number of demand (read+write) hits (Count)
system.cpu.dcache.overallHits::cpu.data      16893325                       # number of overall hits (Count)
system.cpu.dcache.overallHits::total         16893325                       # number of overall hits (Count)
system.cpu.dcache.demandMisses::cpu.data     16927298                       # number of demand (read+write) misses (Count)
system.cpu.dcache.demandMisses::total        16927298                       # number of demand (read+write) misses (Count)
system.cpu.dcache.overallMisses::cpu.data     16927298                       # number of overall misses (Count)
system.cpu.dcache.overallMisses::total       16927298                       # number of overall misses (Count)
system.cpu.dcache.demandMissLatency::cpu.data 1700564906000                       # number of demand (read+write) miss ticks (Tick)
system.cpu.dcache.demandMissLatency::total 1700564906000                       # number of demand (read+write) miss ticks (Tick)
system.cpu.dcache.overallMissLatency::cpu.data 1700564906000                       # number of overall miss ticks (Tick)
system.cpu.dcache.overallMissLatency::total 1700564906000                       # number of overall miss ticks (Tick)
system.cpu.dcache.demandAccesses::cpu.data     33820623                       # number of demand (read+write) accesses (Count)
system.cpu.dcache.demandAccesses::total      33820623                       # number of demand (read+write) accesses (Count)
system.cpu.dcache.overallAccesses::cpu.data     33820623                       # number of overall (read+write) accesses (Count)
system.cpu.dcache.overallAccesses::total     33820623                       # number of overall (read+write) accesses (Count)
system.cpu.dcache.demandMissRate::cpu.data     0.500502                       # miss rate for demand accesses (Ratio)
system.cpu.dcache.demandMissRate::total      0.500502                       # miss rate for demand accesses (Ratio)
system.cpu.dcache.overallMissRate::cpu.data     0.500502                       # miss rate for overall accesses (Ratio)
system.cpu.dcache.overallMissRate::total     0.500502                       # miss rate for overall accesses (Ratio)
system.cpu.dcache.demandAvgMissLatency::cpu.data 100462.868084                       # average overall miss latency in ticks ((Tick/Count))
system.cpu.dcache.demandAvgMissLatency::total 100462.868084                       # average overall miss latency in ticks ((Tick/Count))
system.cpu.dcache.overallAvgMissLatency::cpu.data 100462.868084                       # average overall miss latency ((Tick/Count))
system.cpu.dcache.overallAvgMissLatency::total 100462.868084                       # average overall miss latency ((Tick/Count))
system.cpu.dcache.blockedCycles::no_mshrs            0                       # number of cycles access was blocked (Cycle)
system.cpu.dcache.blockedCycles::no_wbuffers            0                       # number of cycles access was blocked (Cycle)
system.cpu.dcache.blockedCycles::no_targets            0                       # number of cycles access was blocked (Cycle)
system.cpu.dcache.blockedCauses::no_mshrs            0                       # number of times access was blocked (Count)
system.cpu.dcache.blockedCauses::no_wbuffers            0                       # number of times access was blocked (Count)
system.cpu.dcache.blockedCauses::no_targets            0                       # number of times access was blocked (Count)
system.cpu.dcache.avgBlocked::no_mshrs            nan                       # average number of cycles each access was blocked ((Cycle/Count))
system.cpu.dcache.avgBlocked::no_wbuffers          nan                       # average number of cycles each access was blocked ((Cycle/Count))
system.cpu.dcache.avgBlocked::no_targets          nan                       # average number of cycles each access was blocked ((Cycle/Count))
system.cpu.dcache.writebacks::writebacks        77948                       # number of writebacks (Count)
system.cpu.dcache.writebacks::total             77948                       # number of writebacks (Count)
system.cpu.dcache.demandMshrMisses::cpu.data     16927298                       # number of demand (read+write) MSHR misses (Count)
system.cpu.dcache.demandMshrMisses::total     16927298                       # number of demand (read+write) MSHR misses (Count)
system.cpu.dcache.overallMshrMisses::cpu.data     16927298                       # number of overall MSHR misses (Count)
system.cpu.dcache.overallMshrMisses::total     16927298                       # number of overall MSHR misses (Count)
system.cpu.dcache.demandMshrMissLatency::cpu.data 1666710310000                       # number of demand (read+write) MSHR miss ticks (Tick)
system.cpu.dcache.demandMshrMissLatency::total 1666710310000                       # number of demand (read+write) MSHR miss ticks (Tick)
system.cpu.dcache.overallMshrMissLatency::cpu.data 1666710310000                       # number of overall MSHR miss ticks (Tick)
system.cpu.dcache.overallMshrMissLatency::total 1666710310000                       # number of overall MSHR miss ticks (Tick)
system.cpu.dcache.demandMshrMissRate::cpu.data     0.500502                       # mshr miss ratio for demand accesses (Ratio)
system.cpu.dcache.demandMshrMissRate::total     0.500502                       # mshr miss ratio for demand accesses (Ratio)
system.cpu.dcache.overallMshrMissRate::cpu.data     0.500502                       # mshr miss ratio for overall accesses (Ratio)
system.cpu.dcache.overallMshrMissRate::total     0.500502                       # mshr miss ratio for overall accesses (Ratio)
system.cpu.dcache.demandAvgMshrMissLatency::cpu.data 98462.868084                       # average overall mshr miss latency ((Tick/Count))
system.cpu.dcache.demandAvgMshrMissLatency::total 98462.868084                       # average overall mshr miss latency ((Tick/Count))
system.cpu.dcache.overallAvgMshrMissLatency::cpu.data 98462.868084                       # average overall mshr miss latency ((Tick/Count))
system.cpu.dcache.overallAvgMshrMissLatency::total 98462.868084                       # average overall mshr miss latency ((Tick/Count))
system.cpu.dcache.replacements               16926278                       # number of replacements (Count)
system.cpu.dcache.LoadLockedReq.hits::cpu.data           12                       # number of LoadLockedReq hits (Count)
system.cpu.dcache.LoadLockedReq.hits::total           12                       # number of LoadLockedReq hits (Count)
system.cpu.dcache.LoadLockedReq.misses::cpu.data            3                       # number of LoadLockedReq misses (Count)
system.cpu.dcache.LoadLockedReq.misses::total            3                       # number of LoadLockedReq misses (Count)
system.cpu.dcache.LoadLockedReq.missLatency::cpu.data       355000                       # number of LoadLockedReq miss ticks (Tick)
system.cpu.dcache.LoadLockedReq.missLatency::total       355000                       # number of LoadLockedReq miss ticks (Tick)
system.cpu.dcache.LoadLockedReq.accesses::cpu.data           15                       # number of LoadLockedReq accesses(hits+misses) (Count)
system.cpu.dcache.LoadLockedReq.accesses::total           15                       # number of LoadLockedReq accesses(hits+misses) (Count)
system.cpu.dcache.LoadLockedReq.missRate::cpu.data     0.200000                       # miss rate for LoadLockedReq accesses (Ratio)
system.cpu.dcache.LoadLockedReq.missRate::total     0.200000                       # miss rate for LoadLockedReq accesses (Ratio)
system.cpu.dcache.LoadLockedReq.avgMissLatency::cpu.data 118333.333333                       # average LoadLockedReq miss latency ((Tick/Count))
system.cpu.dcache.LoadLockedReq.avgMissLatency::total 118333.333333                       # average LoadLockedReq miss latency ((Tick/Count))
system.cpu.dcache.LoadLockedReq.mshrMisses::cpu.data            3                       # number of LoadLockedReq MSHR misses (Count)
system.cpu.dcache.LoadLockedReq.mshrMisses::total            3                       # number of LoadLockedReq MSHR misses (Count)
system.cpu.dcache.LoadLockedReq.mshrMissLatency::cpu.data       349000                       # number of LoadLockedReq MSHR miss ticks (Tick)
system.cpu.dcache.LoadLockedReq.mshrMissLatency::total       349000                       # number of LoadLockedReq MSHR miss ticks (Tick)
system.cpu.dcache.LoadLockedReq.mshrMissRate::cpu.data     0.200000                       # mshr miss rate for LoadLockedReq accesses (Ratio)
system.cpu.dcache.LoadLockedReq.mshrMissRate::total     0.200000                       # mshr miss rate for LoadLockedReq accesses (Ratio)
system.cpu.dcache.LoadLockedReq.avgMshrMissLatency::cpu.data 116333.333333                       # average LoadLockedReq mshr miss latency ((Tick/Count))
system.cpu.dcache.LoadLockedReq.avgMshrMissLatency::total 116333.333333                       # average LoadLockedReq mshr miss latency ((Tick/Count))
system.cpu.dcache.ReadReq.hits::cpu.data     16707248                       # number of ReadReq hits (Count)
system.cpu.dcache.ReadReq.hits::total        16707248                       # number of ReadReq hits (Count)
system.cpu.dcache.ReadReq.misses::cpu.data     16849330                       # number of ReadReq misses (Count)
system.cpu.dcache.ReadReq.misses::total      16849330                       # number of ReadReq misses (Count)
system.cpu.dcache.ReadReq.missLatency::cpu.data 1694466914000                       # number of ReadReq miss ticks (Tick)
system.cpu.dcache.ReadReq.missLatency::total 1694466914000                       # number of ReadReq miss ticks (Tick)
system.cpu.dcache.ReadReq.accesses::cpu.data     33556578                       # number of ReadReq accesses(hits+misses) (Count)
system.cpu.dcache.ReadReq.accesses::total     33556578                       # number of ReadReq accesses(hits+misses) (Count)
system.cpu.dcache.ReadReq.missRate::cpu.data     0.502117                       # miss rate for ReadReq accesses (Ratio)
system.cpu.dcache.ReadReq.missRate::total     0.502117                       # miss rate for ReadReq accesses (Ratio)
system.cpu.dcache.ReadReq.avgMissLatency::cpu.data 100565.833419                       # average ReadReq miss latency ((Tick/Count))
system.cpu.dcache.ReadReq.avgMissLatency::total 100565.833419                       # average ReadReq miss latency ((Tick/Count))
system.cpu.dcache.ReadReq.mshrMisses::cpu.data     16849330                       # number of ReadReq MSHR misses (Count)
system.cpu.dcache.ReadReq.mshrMisses::total     16849330                       # number of ReadReq MSHR misses (Count)
system.cpu.dcache.ReadReq.mshrMissLatency::cpu.data 1660768254000                       # number of ReadReq MSHR miss ticks (Tick)
system.cpu.dcache.ReadReq.mshrMissLatency::total 1660768254000                       # number of ReadReq MSHR miss ticks (Tick)
system.cpu.dcache.ReadReq.mshrMissRate::cpu.data     0.502117                       # mshr miss rate for ReadReq accesses (Ratio)
system.cpu.dcache.ReadReq.mshrMissRate::total     0.502117                       # mshr miss rate for ReadReq accesses (Ratio)
system.cpu.dcache.ReadReq.avgMshrMissLatency::cpu.data 98565.833419                       # average ReadReq mshr miss latency ((Tick/Count))
system.cpu.dcache.ReadReq.avgMshrMissLatency::total 98565.833419                       # average ReadReq mshr miss latency ((Tick/Count))
system.cpu.dcache.StoreCondReq.hits::cpu.data           15                       # number of StoreCondReq hits (Count)
system.cpu.dcache.StoreCondReq.hits::total           15                       # number of StoreCondReq hits (Count)
system.cpu.dcache.StoreCondReq.accesses::cpu.data           15                       # number of StoreCondReq accesses(hits+misses) (Count)
system.cpu.dcache.StoreCondReq.accesses::total           15                       # number of StoreCondReq accesses(hits+misses) (Count)
system.cpu.dcache.SwapReq.hits::cpu.data           25                       # number of SwapReq hits (Count)
system.cpu.dcache.SwapReq.hits::total              25                       # number of SwapReq hits (Count)
system.cpu.dcache.SwapReq.misses::cpu.data            1                       # number of SwapReq misses (Count)
system.cpu.dcache.SwapReq.misses::total             1                       # number of SwapReq misses (Count)
system.cpu.dcache.SwapReq.missLatency::cpu.data        95000                       # number of SwapReq miss ticks (Tick)
system.cpu.dcache.SwapReq.missLatency::total        95000                       # number of SwapReq miss ticks (Tick)
system.cpu.dcache.SwapReq.accesses::cpu.data           26                       # number of SwapReq accesses(hits+misses) (Count)
system.cpu.dcache.SwapReq.accesses::total           26                       # number of SwapReq accesses(hits+misses) (Count)
system.cpu.dcache.SwapReq.missRate::cpu.data     0.038462                       # miss rate for SwapReq accesses (Ratio)
system.cpu.dcache.SwapReq.missRate::total     0.038462                       # miss rate for SwapReq accesses (Ratio)
system.cpu.dcache.SwapReq.avgMissLatency::cpu.data        95000                       # average SwapReq miss latency ((Tick/Count))
system.cpu.dcache.SwapReq.avgMissLatency::total        95000                       # average SwapReq miss latency ((Tick/Count))
system.cpu.dcache.SwapReq.mshrMisses::cpu.data            1                       # number of SwapReq MSHR misses (Count)
system.cpu.dcache.SwapReq.mshrMisses::total            1                       # number of SwapReq MSHR misses (Count)
system.cpu.dcache.SwapReq.mshrMissLatency::cpu.data        93000                       # number of SwapReq MSHR miss ticks (Tick)
system.cpu.dcache.SwapReq.mshrMissLatency::total        93000                       # number of SwapReq MSHR miss ticks (Tick)
system.cpu.dcache.SwapReq.mshrMissRate::cpu.data     0.038462                       # mshr miss rate for SwapReq accesses (Ratio)
system.cpu.dcache.SwapReq.mshrMissRate::total     0.038462                       # mshr miss rate for SwapReq accesses (Ratio)
system.cpu.dcache.SwapReq.avgMshrMissLatency::cpu.data        93000                       # average SwapReq mshr miss latency ((Tick/Count))
system.cpu.dcache.SwapReq.avgMshrMissLatency::total        93000                       # average SwapReq mshr miss latency ((Tick/Count))
system.cpu.dcache.WriteReq.hits::cpu.data       186077                       # number of WriteReq hits (Count)
system.cpu.dcache.WriteReq.hits::total         186077                       # number of WriteReq hits (Count)
system.cpu.dcache.WriteReq.misses::cpu.data        77968                       # number of WriteReq misses (Count)
system.cpu.dcache.WriteReq.misses::total        77968                       # number of WriteReq misses (Count)
system.cpu.dcache.WriteReq.missLatency::cpu.data   6097992000                       # number of WriteReq miss ticks (Tick)
system.cpu.dcache.WriteReq.missLatency::total   6097992000                       # number of WriteReq miss ticks (Tick)
system.cpu.dcache.WriteReq.accesses::cpu.data       264045                       # number of WriteReq accesses(hits+misses) (Count)
system.cpu.dcache.WriteReq.accesses::total       264045                       # number of WriteReq accesses(hits+misses) (Count)
system.cpu.dcache.WriteReq.missRate::cpu.data     0.295283                       # miss rate for WriteReq accesses (Ratio)
system.cpu.dcache.WriteReq.missRate::total     0.295283                       # miss rate for WriteReq accesses (Ratio)
system.cpu.dcache.WriteReq.avgMissLatency::cpu.data 78211.471373                       # average WriteReq miss latency ((Tick/Count))
system.cpu.dcache.WriteReq.avgMissLatency::total 78211.471373                       # average WriteReq miss latency ((Tick/Count))
system.cpu.dcache.WriteReq.mshrMisses::cpu.data        77968                       # number of WriteReq MSHR misses (Count)
system.cpu.dcache.WriteReq.mshrMisses::total        77968                       # number of WriteReq MSHR misses (Count)
system.cpu.dcache.WriteReq.mshrMissLatency::cpu.data   5942056000                       # number of WriteReq MSHR miss ticks (Tick)
system.cpu.dcache.WriteReq.mshrMissLatency::total   5942056000                       # number of WriteReq MSHR miss ticks (Tick)
system.cpu.dcache.WriteReq.mshrMissRate::cpu.data     0.295283                       # mshr miss rate for WriteReq accesses (Ratio)
system.cpu.dcache.WriteReq.mshrMissRate::total     0.295283                       # mshr miss rate for WriteReq accesses (Ratio)
system.cpu.dcache.WriteReq.avgMshrMissLatency::cpu.data 76211.471373                       # average WriteReq mshr miss latency ((Tick/Count))
system.cpu.dcache.WriteReq.avgMshrMissLatency::total 76211.471373                       # average WriteReq mshr miss latency ((Tick/Count))
system.cpu.dcache.power_state.pwrStateResidencyTicks::UNDEFINED 2275222743000                       # Cumulative time (in ticks) in various power states (Tick)
system.cpu.dcache.tags.tagsInUse          1023.907258                       # Average ticks per tags in use ((Tick/Count))
system.cpu.dcache.tags.totalRefs             33820679                       # Total number of references to valid blocks. (Count)
system.cpu.dcache.tags.sampledRefs           16927302                       # Sample count of references to valid blocks. (Count)
system.cpu.dcache.tags.avgRefs               1.997996                       # Average number of references to valid blocks. ((Count/Count))
system.cpu.dcache.tags.warmupTick              238000                       # The tick when the warmup percentage was hit. (Tick)
system.cpu.dcache.tags.occupancies::cpu.data  1023.907258                       # Average occupied blocks per tick, per requestor ((Count/Tick))
system.cpu.dcache.tags.avgOccs::cpu.data     0.999909                       # Average percentage of cache occupancy ((Ratio/Tick))
system.cpu.dcache.tags.avgOccs::total        0.999909                       # Average percentage of cache occupancy ((Ratio/Tick))
system.cpu.dcache.tags.occupanciesTaskId::1024         1024                       # Occupied blocks per task id (Count)
system.cpu.dcache.tags.ageTaskId_1024::0           28                       # Occupied blocks per task id, per block age (Count)
system.cpu.dcache.tags.ageTaskId_1024::1          100                       # Occupied blocks per task id, per block age (Count)
system.cpu.dcache.tags.ageTaskId_1024::2           59                       # Occupied blocks per task id, per block age (Count)
system.cpu.dcache.tags.ageTaskId_1024::3          837                       # Occupied blocks per task id, per block age (Count)
system.cpu.dcache.tags.ratioOccsTaskId::1024            1                       # Ratio of occupied blocks and all blocks, per task id (Ratio)
system.cpu.dcache.tags.tagAccesses          152210018                       # Number of tag accesses (Count)
system.cpu.dcache.tags.dataAccesses         152210018                       # Number of data accesses (Count)
system.cpu.dcache.tags.power_state.pwrStateResidencyTicks::UNDEFINED 2275222743000                       # Cumulative time (in ticks) in various power states (Tick)
system.cpu.exec_context.thread_0.numMatAluAccesses            0                       # Number of matrix alu accesses (Count)
system.cpu.exec_context.thread_0.numMatInsts            0                       # Number of matrix instructions (Count)
system.cpu.exec_context.thread_0.numIdleCycles     0.001000                       # Number of idle cycles (Cycle)
system.cpu.exec_context.thread_0.numBusyCycles 2275222742.999000                       # Number of busy cycles (Cycle)
system.cpu.exec_context.thread_0.notIdleFraction     1.000000                       # Percentage of non-idle cycles (Ratio)
system.cpu.exec_context.thread_0.idleFraction     0.000000                       # Percentage of idle cycles (Ratio)
system.cpu.executeStats0.numInsts           219559684                       # Number of executed instructions (Count)
system.cpu.executeStats0.numNop                     0                       # Number of nop insts executed (Count)
system.cpu.executeStats0.numBranches         16911137                       # Number of branches executed (Count)
system.cpu.executeStats0.numLoadInsts        33556593                       # Number of load instructions executed (Count)
system.cpu.executeStats0.numStoreInsts         264086                       # Number of stores executed (Count)
system.cpu.executeStats0.instRate            0.096500                       # Inst execution rate ((Count/Cycle))
system.cpu.executeStats0.numFpAluAccesses           12                       # Number of float alu accesses (Count)
system.cpu.executeStats0.numFpRegReads             12                       # Number of times the floating registers were read (Count)
system.cpu.executeStats0.numFpRegWrites             0                       # Number of times the floating registers were written (Count)
system.cpu.executeStats0.numIntAluAccesses    219559564                       # Number of integer alu accesses (Count)
system.cpu.executeStats0.numIntRegReads     337789009                       # Number of times the integer registers were read (Count)
system.cpu.executeStats0.numIntRegWrites    202384686                       # Number of times the integer registers were written (Count)
system.cpu.executeStats0.numMemRefs          33820679                       # Number of memory refs (Count)
system.cpu.executeStats0.numMiscRegReads           52                       # Number of times the Misc registers were read (Count)
system.cpu.executeStats0.numVecAluAccesses            0                       # Number of vector alu accesses (Count)
system.cpu.executeStats0.numDiscardedOps            0                       # Number of ops (including micro ops) which were discarded before commit (Count)
system.cpu.fetchStats0.numInsts             219559701                       # Number of instructions fetched (thread level) (Count)
system.cpu.fetchStats0.numOps               219559716                       # Number of ops (including micro ops) fetched (thread level) (Count)
system.cpu.fetchStats0.fetchRate             0.096500                       # Number of inst fetches per cycle ((Count/Cycle))
system.cpu.fetchStats0.numBranches           16911137                       # Number of branches fetched (Count)
system.cpu.fetchStats0.branchRate            0.007433                       # Number of branch fetches per cycle (Ratio)
system.cpu.fetchStats0.numFetchSuspends             0                       # Number of times Execute suspended instruction fetching (Count)
system.cpu.icache.demandHits::cpu.inst      270418644                       # number of demand (read+write) hits (Count)
system.cpu.icache.demandHits::total         270418644                       # number of demand (read+write) hits (Count)
system.cpu.icache.overallHits::cpu.inst     270418644                       # number of overall hits (Count)
system.cpu.icache.overallHits::total        270418644                       # number of overall hits (Count)
system.cpu.icache.demandMisses::cpu.inst          321                       # number of demand (read+write) misses (Count)
system.cpu.icache.demandMisses::total             321                       # number of demand (read+write) misses (Count)
system.cpu.icache.overallMisses::cpu.inst          321                       # number of overall misses (Count)
system.cpu.icache.overallMisses::total            321                       # number of overall misses (Count)
system.cpu.icache.demandMissLatency::cpu.inst     33345000                       # number of demand (read+write) miss ticks (Tick)
system.cpu.icache.demandMissLatency::total     33345000                       # number of demand (read+write) miss ticks (Tick)
system.cpu.icache.overallMissLatency::cpu.inst     33345000                       # number of overall miss ticks (Tick)
system.cpu.icache.overallMissLatency::total     33345000                       # number of overall miss ticks (Tick)
system.cpu.icache.demandAccesses::cpu.inst    270418965                       # number of demand (read+write) accesses (Count)
system.cpu.icache.demandAccesses::total     270418965                       # number of demand (read+write) accesses (Count)
system.cpu.icache.overallAccesses::cpu.inst    270418965                       # number of overall (read+write) accesses (Count)
system.cpu.icache.overallAccesses::total    270418965                       # number of overall (read+write) accesses (Count)
system.cpu.icache.demandMissRate::cpu.inst     0.000001                       # miss rate for demand accesses (Ratio)
system.cpu.icache.demandMissRate::total      0.000001                       # miss rate for demand accesses (Ratio)
system.cpu.icache.overallMissRate::cpu.inst     0.000001                       # miss rate for overall accesses (Ratio)
system.cpu.icache.overallMissRate::total     0.000001                       # miss rate for overall accesses (Ratio)
system.cpu.icache.demandAvgMissLatency::cpu.inst 103878.504673                       # average overall miss latency in ticks ((Tick/Count))
system.cpu.icache.demandAvgMissLatency::total 103878.504673                       # average overall miss latency in ticks ((Tick/Count))
system.cpu.icache.overallAvgMissLatency::cpu.inst 103878.504673                       # average overall miss latency ((Tick/Count))
system.cpu.icache.overallAvgMissLatency::total 103878.504673                       # average overall miss latency ((Tick/Count))
system.cpu.icache.blockedCycles::no_mshrs            0                       # number of cycles access was blocked (Cycle)
system.cpu.icache.blockedCycles::no_wbuffers            0                       # number of cycles access was blocked (Cycle)
system.cpu.icache.blockedCycles::no_targets            0                       # number of cycles access was blocked (Cycle)
system.cpu.icache.blockedCauses::no_mshrs            0                       # number of times access was blocked (Count)
system.cpu.icache.blockedCauses::no_wbuffers            0                       # number of times access was blocked (Count)
system.cpu.icache.blockedCauses::no_targets            0                       # number of times access was blocked (Count)
system.cpu.icache.avgBlocked::no_mshrs            nan                       # average number of cycles each access was blocked ((Cycle/Count))
system.cpu.icache.avgBlocked::no_wbuffers          nan                       # average number of cycles each access was blocked ((Cycle/Count))
system.cpu.icache.avgBlocked::no_targets          nan                       # average number of cycles each access was blocked ((Cycle/Count))
system.cpu.icache.demandMshrMisses::cpu.inst          321                       # number of demand (read+write) MSHR misses (Count)
system.cpu.icache.demandMshrMisses::total          321                       # number of demand (read+write) MSHR misses (Count)
system.cpu.icache.overallMshrMisses::cpu.inst          321                       # number of overall MSHR misses (Count)
system.cpu.icache.overallMshrMisses::total          321                       # number of overall MSHR misses (Count)
system.cpu.icache.demandMshrMissLatency::cpu.inst     32703000                       # number of demand (read+write) MSHR miss ticks (Tick)
system.cpu.icache.demandMshrMissLatency::total     32703000                       # number of demand (read+write) MSHR miss ticks (Tick)
system.cpu.icache.overallMshrMissLatency::cpu.inst     32703000                       # number of overall MSHR miss ticks (Tick)
system.cpu.icache.overallMshrMissLatency::total     32703000                       # number of overall MSHR miss ticks (Tick)
system.cpu.icache.demandMshrMissRate::cpu.inst     0.000001                       # mshr miss ratio for demand accesses (Ratio)
system.cpu.icache.demandMshrMissRate::total     0.000001                       # mshr miss ratio for demand accesses (Ratio)
system.cpu.icache.overallMshrMissRate::cpu.inst     0.000001                       # mshr miss ratio for overall accesses (Ratio)
system.cpu.icache.overallMshrMissRate::total     0.000001                       # mshr miss ratio for overall accesses (Ratio)
system.cpu.icache.demandAvgMshrMissLatency::cpu.inst 101878.504673                       # average overall mshr miss latency ((Tick/Count))
system.cpu.icache.demandAvgMshrMissLatency::total 101878.504673                       # average overall mshr miss latency ((Tick/Count))
system.cpu.icache.overallAvgMshrMissLatency::cpu.inst 101878.504673                       # average overall mshr miss latency ((Tick/Count))
system.cpu.icache.overallAvgMshrMissLatency::total 101878.504673                       # average overall mshr miss latency ((Tick/Count))
system.cpu.icache.replacements                     83                       # number of replacements (Count)
system.cpu.icache.ReadReq.hits::cpu.inst    270418644                       # number of ReadReq hits (Count)
system.cpu.icache.ReadReq.hits::total       270418644                       # number of ReadReq hits (Count)
system.cpu.icache.ReadReq.misses::cpu.inst          321                       # number of ReadReq misses (Count)
system.cpu.icache.ReadReq.misses::total           321                       # number of ReadReq misses (Count)
system.cpu.icache.ReadReq.missLatency::cpu.inst     33345000                       # number of ReadReq miss ticks (Tick)
system.cpu.icache.ReadReq.missLatency::total     33345000                       # number of ReadReq miss ticks (Tick)
system.cpu.icache.ReadReq.accesses::cpu.inst    270418965                       # number of ReadReq accesses(hits+misses) (Count)
system.cpu.icache.ReadReq.accesses::total    270418965                       # number of ReadReq accesses(hits+misses) (Count)
system.cpu.icache.ReadReq.missRate::cpu.inst     0.000001                       # miss rate for ReadReq accesses (Ratio)
system.cpu.icache.ReadReq.missRate::total     0.000001                       # miss rate for ReadReq accesses (Ratio)
system.cpu.icache.ReadReq.avgMissLatency::cpu.inst 103878.504673                       # average ReadReq miss latency ((Tick/Count))
system.cpu.icache.ReadReq.avgMissLatency::total 103878.504673                       # average ReadReq miss latency ((Tick/Count))
system.cpu.icache.ReadReq.mshrMisses::cpu.inst          321                       # number of ReadReq MSHR misses (Count)
system.cpu.icache.ReadReq.mshrMisses::total          321                       # number of ReadReq MSHR misses (Count)
system.cpu.icache.ReadReq.mshrMissLatency::cpu.inst     32703000                       # number of ReadReq MSHR miss ticks (Tick)
system.cpu.icache.ReadReq.mshrMissLatency::total     32703000                       # number of ReadReq MSHR miss ticks (Tick)
system.cpu.icache.ReadReq.mshrMissRate::cpu.inst     0.000001                       # mshr miss rate for ReadReq accesses (Ratio)
system.cpu.icache.ReadReq.mshrMissRate::total     0.000001                       # mshr miss rate for ReadReq accesses (Ratio)
system.cpu.icache.ReadReq.avgMshrMissLatency::cpu.inst 101878.504673                       # average ReadReq mshr miss latency ((Tick/Count))
system.cpu.icache.ReadReq.avgMshrMissLatency::total 101878.504673                       # average ReadReq mshr miss latency ((Tick/Count))
system.cpu.icache.power_state.pwrStateResidencyTicks::UNDEFINED 2275222743000                       # Cumulative time (in ticks) in various power states (Tick)
system.cpu.icache.tags.tagsInUse           225.996517                       # Average ticks per tags in use ((Tick/Count))
system.cpu.icache.tags.totalRefs            270418965                       # Total number of references to valid blocks. (Count)
system.cpu.icache.tags.sampledRefs                321                       # Sample count of references to valid blocks. (Count)
system.cpu.icache.tags.avgRefs           842426.682243                       # Average number of references to valid blocks. ((Count/Count))
system.cpu.icache.tags.warmupTick              107000                       # The tick when the warmup percentage was hit. (Tick)
system.cpu.icache.tags.occupancies::cpu.inst   225.996517                       # Average occupied blocks per tick, per requestor ((Count/Tick))
system.cpu.icache.tags.avgOccs::cpu.inst     0.882799                       # Average percentage of cache occupancy ((Ratio/Tick))
system.cpu.icache.tags.avgOccs::total        0.882799                       # Average percentage of cache occupancy ((Ratio/Tick))
system.cpu.icache.tags.occupanciesTaskId::1024          238                       # Occupied blocks per task id (Count)
system.cpu.icache.tags.ageTaskId_1024::0           41                       # Occupied blocks per task id, per block age (Count)
system.cpu.icache.tags.ageTaskId_1024::1            1                       # Occupied blocks per task id, per block age (Count)
system.cpu.icache.tags.ageTaskId_1024::4          196                       # Occupied blocks per task id, per block age (Count)
system.cpu.icache.tags.ratioOccsTaskId::1024     0.929688                       # Ratio of occupied blocks and all blocks, per task id (Ratio)
system.cpu.icache.tags.tagAccesses         1081676181                       # Number of tag accesses (Count)
system.cpu.icache.tags.dataAccesses        1081676181                       # Number of data accesses (Count)
system.cpu.icache.tags.power_state.pwrStateResidencyTicks::UNDEFINED 2275222743000                       # Cumulative time (in ticks) in various power states (Tick)
system.cpu.mmu.dtb.readHits                         0                       # read hits (Count)
system.cpu.mmu.dtb.readMisses                       0                       # read misses (Count)
system.cpu.mmu.dtb.readAccesses                     0                       # read accesses (Count)
system.cpu.mmu.dtb.writeHits                        0                       # write hits (Count)
system.cpu.mmu.dtb.writeMisses                      0                       # write misses (Count)
system.cpu.mmu.dtb.writeAccesses                    0                       # write accesses (Count)
system.cpu.mmu.dtb.hits                             0                       # Total TLB (read and write) hits (Count)
system.cpu.mmu.dtb.misses                           0                       # Total TLB (read and write) misses (Count)
system.cpu.mmu.dtb.accesses                         0                       # Total TLB (read and write) accesses (Count)
system.cpu.mmu.dtb.walker.num_4kb_walks             0                       # Completed page walks with 4KB pages (Count)
system.cpu.mmu.dtb.walker.num_64kb_walks            0                       # Completed page walks with 64KB pages (Count)
system.cpu.mmu.dtb.walker.num_2mb_walks             0                       # Completed page walks with 2MB pages (Count)
system.cpu.mmu.dtb.walker.power_state.pwrStateResidencyTicks::UNDEFINED 2275222743000                       # Cumulative time (in ticks) in various power states (Tick)
system.cpu.mmu.itb.readHits                         0                       # read hits (Count)
system.cpu.mmu.itb.readMisses                       0                       # read misses (Count)
system.cpu.mmu.itb.readAccesses                     0                       # read accesses (Count)
system.cpu.mmu.itb.writeHits                        0                       # write hits (Count)
system.cpu.mmu.itb.writeMisses                      0                       # write misses (Count)
system.cpu.mmu.itb.writeAccesses                    0                       # write accesses (Count)
system.cpu.mmu.itb.hits                             0                       # Total TLB (read and write) hits (Count)
system.cpu.mmu.itb.misses                           0                       # Total TLB (read and write) misses (Count)
system.cpu.mmu.itb.accesses                         0                       # Total TLB (read and write) accesses (Count)
system.cpu.mmu.itb.walker.num_4kb_walks             0                       # Completed page walks with 4KB pages (Count)
system.cpu.mmu.itb.walker.num_64kb_walks            0                       # Completed page walks with 64KB pages (Count)
system.cpu.mmu.itb.walker.num_2mb_walks             0                       # Completed page walks with 2MB pages (Count)
system.cpu.mmu.itb.walker.power_state.pwrStateResidencyTicks::UNDEFINED 2275222743000                       # Cumulative time (in ticks) in various power states (Tick)
system.cpu.power_state.pwrStateResidencyTicks::ON 2275222743000                       # Cumulative time (in ticks) in various power states (Tick)
system.cpu.thread_0.numInsts                219559684                       # Number of Instructions committed (Count)
system.cpu.thread_0.numOps                  219559699                       # Number of Ops committed (Count)
system.cpu.thread_0.numMemRefs               33820679                       # Number of Memory References (Count)
system.cpu.workload.numSyscalls                    14                       # Number of system calls (Count)
system.l2bus.transDist::ReadResp             16849654                       # Transaction distribution (Count)
system.l2bus.transDist::WritebackDirty         155896                       # Transaction distribution (Count)
system.l2bus.transDist::CleanEvict           33719745                       # Transaction distribution (Count)
system.l2bus.transDist::ReadExReq               77969                       # Transaction distribution (Count)
system.l2bus.transDist::ReadExResp              77969                       # Transaction distribution (Count)
system.l2bus.transDist::ReadSharedReq        16849654                       # Transaction distribution (Count)
system.l2bus.pktCount_system.cpu.icache.mem_side_port::system.l2cache.cpu_side_port          725                       # Packet count per connected requestor and responder (Count)
system.l2bus.pktCount_system.cpu.dcache.mem_side_port::system.l2cache.cpu_side_port     50780882                       # Packet count per connected requestor and responder (Count)
system.l2bus.pktCount::total                 50781607                       # Packet count per connected requestor and responder (Count)
system.l2bus.pktSize_system.cpu.icache.mem_side_port::system.l2cache.cpu_side_port        20544                       # Cumulative packet size per connected requestor and responder (Byte)
system.l2bus.pktSize_system.cpu.dcache.mem_side_port::system.l2cache.cpu_side_port   1088336000                       # Cumulative packet size per connected requestor and responder (Byte)
system.l2bus.pktSize::total                1088356544                       # Cumulative packet size per connected requestor and responder (Byte)
system.l2bus.snoops                          16949280                       # Total snoops (Count)
system.l2bus.snoopTraffic                     4988672                       # Total snoop traffic (Byte)
system.l2bus.snoopFanout::samples            33876903                       # Request fanout histogram (Count)
system.l2bus.snoopFanout::mean               0.101254                       # Request fanout histogram (Count)
system.l2bus.snoopFanout::stdev              0.301665                       # Request fanout histogram (Count)
system.l2bus.snoopFanout::underflows                0      0.00%      0.00% # Request fanout histogram (Count)
system.l2bus.snoopFanout::0                  30446720     89.87%     89.87% # Request fanout histogram (Count)
system.l2bus.snoopFanout::1                   3430183     10.13%    100.00% # Request fanout histogram (Count)
system.l2bus.snoopFanout::2                         0      0.00%    100.00% # Request fanout histogram (Count)
system.l2bus.snoopFanout::overflows                 0      0.00%    100.00% # Request fanout histogram (Count)
system.l2bus.snoopFanout::min_value                 0                       # Request fanout histogram (Count)
system.l2bus.snoopFanout::max_value                 1                       # Request fanout histogram (Count)
system.l2bus.snoopFanout::total              33876903                       # Request fanout histogram (Count)
system.l2bus.power_state.pwrStateResidencyTicks::UNDEFINED 2275222743000                       # Cumulative time (in ticks) in various power states (Tick)
system.l2bus.reqLayer0.occupancy          34009880000                       # Layer occupancy (ticks) (Tick)
system.l2bus.reqLayer0.utilization                0.0                       # Layer utilization (Ratio)
system.l2bus.respLayer0.occupancy              963000                       # Layer occupancy (ticks) (Tick)
system.l2bus.respLayer0.utilization               0.0                       # Layer utilization (Ratio)
system.l2bus.respLayer1.occupancy         50781906000                       # Layer occupancy (ticks) (Tick)
system.l2bus.respLayer1.utilization               0.0                       # Layer utilization (Ratio)
system.l2bus.snoop_filter.totRequests        33853984                       # Total number of requests made to the snoop filter. (Count)
system.l2bus.snoop_filter.hitSingleRequests     16926361                       # Number of requests hitting in the snoop filter with a single holder of the requested data. (Count)
system.l2bus.snoop_filter.hitMultiRequests            0                       # Number of requests hitting in the snoop filter with multiple (>1) holders of the requested data. (Count)
system.l2bus.snoop_filter.totSnoops           3430183                       # Total number of snoops made to the snoop filter. (Count)
system.l2bus.snoop_filter.hitSingleSnoops      3430183                       # Number of snoops hitting in the snoop filter with a single holder of the requested data. (Count)
system.l2bus.snoop_filter.hitMultiSnoops            0                       # Number of snoops hitting in the snoop filter with multiple (>1) holders of the requested data. (Count)
system.l2cache.demandHits::cpu.inst                 1                       # number of demand (read+write) hits (Count)
system.l2cache.demandHits::cpu.data              1108                       # number of demand (read+write) hits (Count)
system.l2cache.demandHits::total                 1109                       # number of demand (read+write) hits (Count)
system.l2cache.overallHits::cpu.inst                1                       # number of overall hits (Count)
system.l2cache.overallHits::cpu.data             1108                       # number of overall hits (Count)
system.l2cache.overallHits::total                1109                       # number of overall hits (Count)
system.l2cache.demandMisses::cpu.inst             320                       # number of demand (read+write) misses (Count)
system.l2cache.demandMisses::cpu.data        16926194                       # number of demand (read+write) misses (Count)
system.l2cache.demandMisses::total           16926514                       # number of demand (read+write) misses (Count)
system.l2cache.overallMisses::cpu.inst            320                       # number of overall misses (Count)
system.l2cache.overallMisses::cpu.data       16926194                       # number of overall misses (Count)
system.l2cache.overallMisses::total          16926514                       # number of overall misses (Count)
system.l2cache.demandMissLatency::cpu.inst     31719000                       # number of demand (read+write) miss ticks (Tick)
system.l2cache.demandMissLatency::cpu.data 1615905578000                       # number of demand (read+write) miss ticks (Tick)
system.l2cache.demandMissLatency::total  1615937297000                       # number of demand (read+write) miss ticks (Tick)
system.l2cache.overallMissLatency::cpu.inst     31719000                       # number of overall miss ticks (Tick)
system.l2cache.overallMissLatency::cpu.data 1615905578000                       # number of overall miss ticks (Tick)
system.l2cache.overallMissLatency::total 1615937297000                       # number of overall miss ticks (Tick)
system.l2cache.demandAccesses::cpu.inst           321                       # number of demand (read+write) accesses (Count)
system.l2cache.demandAccesses::cpu.data      16927302                       # number of demand (read+write) accesses (Count)
system.l2cache.demandAccesses::total         16927623                       # number of demand (read+write) accesses (Count)
system.l2cache.overallAccesses::cpu.inst          321                       # number of overall (read+write) accesses (Count)
system.l2cache.overallAccesses::cpu.data     16927302                       # number of overall (read+write) accesses (Count)
system.l2cache.overallAccesses::total        16927623                       # number of overall (read+write) accesses (Count)
system.l2cache.demandMissRate::cpu.inst      0.996885                       # miss rate for demand accesses (Ratio)
system.l2cache.demandMissRate::cpu.data      0.999935                       # miss rate for demand accesses (Ratio)
system.l2cache.demandMissRate::total         0.999934                       # miss rate for demand accesses (Ratio)
system.l2cache.overallMissRate::cpu.inst     0.996885                       # miss rate for overall accesses (Ratio)
system.l2cache.overallMissRate::cpu.data     0.999935                       # miss rate for overall accesses (Ratio)
system.l2cache.overallMissRate::total        0.999934                       # miss rate for overall accesses (Ratio)
system.l2cache.demandAvgMissLatency::cpu.inst 99121.875000                       # average overall miss latency in ticks ((Tick/Count))
system.l2cache.demandAvgMissLatency::cpu.data 95467.745318                       # average overall miss latency in ticks ((Tick/Count))
system.l2cache.demandAvgMissLatency::total 95467.814401                       # average overall miss latency in ticks ((Tick/Count))
system.l2cache.overallAvgMissLatency::cpu.inst 99121.875000                       # average overall miss latency ((Tick/Count))
system.l2cache.overallAvgMissLatency::cpu.data 95467.745318                       # average overall miss latency ((Tick/Count))
system.l2cache.overallAvgMissLatency::total 95467.814401                       # average overall miss latency ((Tick/Count))
system.l2cache.blockedCycles::no_mshrs              0                       # number of cycles access was blocked (Cycle)
system.l2cache.blockedCycles::no_wbuffers            0                       # number of cycles access was blocked (Cycle)
system.l2cache.blockedCycles::no_targets            0                       # number of cycles access was blocked (Cycle)
system.l2cache.blockedCauses::no_mshrs              0                       # number of times access was blocked (Count)
system.l2cache.blockedCauses::no_wbuffers            0                       # number of times access was blocked (Count)
system.l2cache.blockedCauses::no_targets            0                       # number of times access was blocked (Count)
system.l2cache.avgBlocked::no_mshrs               nan                       # average number of cycles each access was blocked ((Cycle/Count))
system.l2cache.avgBlocked::no_wbuffers            nan                       # average number of cycles each access was blocked ((Cycle/Count))
system.l2cache.avgBlocked::no_targets             nan                       # average number of cycles each access was blocked ((Cycle/Count))
system.l2cache.writebacks::writebacks           77948                       # number of writebacks (Count)
system.l2cache.writebacks::total                77948                       # number of writebacks (Count)
system.l2cache.demandMshrMisses::cpu.inst          320                       # number of demand (read+write) MSHR misses (Count)
system.l2cache.demandMshrMisses::cpu.data     16926194                       # number of demand (read+write) MSHR misses (Count)
system.l2cache.demandMshrMisses::total       16926514                       # number of demand (read+write) MSHR misses (Count)
system.l2cache.overallMshrMisses::cpu.inst          320                       # number of overall MSHR misses (Count)
system.l2cache.overallMshrMisses::cpu.data     16926194                       # number of overall MSHR misses (Count)
system.l2cache.overallMshrMisses::total      16926514                       # number of overall MSHR misses (Count)
system.l2cache.demandMshrMissLatency::cpu.inst     25319000                       # number of demand (read+write) MSHR miss ticks (Tick)
system.l2cache.demandMshrMissLatency::cpu.data 1277381698000                       # number of demand (read+write) MSHR miss ticks (Tick)
system.l2cache.demandMshrMissLatency::total 1277407017000                       # number of demand (read+write) MSHR miss ticks (Tick)
system.l2cache.overallMshrMissLatency::cpu.inst     25319000                       # number of overall MSHR miss ticks (Tick)
system.l2cache.overallMshrMissLatency::cpu.data 1277381698000                       # number of overall MSHR miss ticks (Tick)
system.l2cache.overallMshrMissLatency::total 1277407017000                       # number of overall MSHR miss ticks (Tick)
system.l2cache.demandMshrMissRate::cpu.inst     0.996885                       # mshr miss ratio for demand accesses (Ratio)
system.l2cache.demandMshrMissRate::cpu.data     0.999935                       # mshr miss ratio for demand accesses (Ratio)
system.l2cache.demandMshrMissRate::total     0.999934                       # mshr miss ratio for demand accesses (Ratio)
system.l2cache.overallMshrMissRate::cpu.inst     0.996885                       # mshr miss ratio for overall accesses (Ratio)
system.l2cache.overallMshrMissRate::cpu.data     0.999935                       # mshr miss ratio for overall accesses (Ratio)
[...]
system.mem_ctrl.dram.bytesInstRead::total        20480                       # Number of instructions bytes read from this memory (Byte)
system.mem_ctrl.dram.bytesWritten::writebacks      4988672                       # Number of bytes written to this memory (Byte)
system.mem_ctrl.dram.bytesWritten::total      4988672                       # Number of bytes written to this memory (Byte)
system.mem_ctrl.dram.numReads::cpu.inst           320                       # Number of read requests responded to by this memory (Count)
system.mem_ctrl.dram.numReads::cpu.data      16926194                       # Number of read requests responded to by this memory (Count)
system.mem_ctrl.dram.numReads::total         16926514                       # Number of read requests responded to by this memory (Count)
system.mem_ctrl.dram.numWrites::writebacks        77948                       # Number of write requests responded to by this memory (Count)
system.mem_ctrl.dram.numWrites::total           77948                       # Number of write requests responded to by this memory (Count)
system.mem_ctrl.dram.bwRead::cpu.inst            9001                       # Total read bandwidth from this memory ((Byte/Second))
system.mem_ctrl.dram.bwRead::cpu.data       476118841                       # Total read bandwidth from this memory ((Byte/Second))
system.mem_ctrl.dram.bwRead::total          476127843                       # Total read bandwidth from this memory ((Byte/Second))
system.mem_ctrl.dram.bwInstRead::cpu.inst         9001                       # Instruction read bandwidth from this memory ((Byte/Second))
system.mem_ctrl.dram.bwInstRead::total           9001                       # Instruction read bandwidth from this memory ((Byte/Second))
system.mem_ctrl.dram.bwWrite::writebacks      2192608                       # Write bandwidth from this memory ((Byte/Second))
system.mem_ctrl.dram.bwWrite::total           2192608                       # Write bandwidth from this memory ((Byte/Second))
system.mem_ctrl.dram.bwTotal::writebacks      2192608                       # Total bandwidth to/from this memory ((Byte/Second))
system.mem_ctrl.dram.bwTotal::cpu.inst           9001                       # Total bandwidth to/from this memory ((Byte/Second))
system.mem_ctrl.dram.bwTotal::cpu.data      476118841                       # Total bandwidth to/from this memory ((Byte/Second))
system.mem_ctrl.dram.bwTotal::total         478320451                       # Total bandwidth to/from this memory ((Byte/Second))
system.mem_ctrl.dram.readBursts              16863277                       # Number of DRAM read bursts (Count)
system.mem_ctrl.dram.writeBursts                16559                       # Number of DRAM write bursts (Count)
system.mem_ctrl.dram.perBankRdBursts::0       1054081                       # Per bank write bursts (Count)
system.mem_ctrl.dram.perBankRdBursts::1       1053723                       # Per bank write bursts (Count)
system.mem_ctrl.dram.perBankRdBursts::2       1053667                       # Per bank write bursts (Count)
system.mem_ctrl.dram.perBankRdBursts::3       1053131                       # Per bank write bursts (Count)
system.mem_ctrl.dram.perBankRdBursts::4       1054086                       # Per bank write bursts (Count)
system.mem_ctrl.dram.perBankRdBursts::5       1054035                       # Per bank write bursts (Count)
system.mem_ctrl.dram.perBankRdBursts::6       1054140                       # Per bank write bursts (Count)
system.mem_ctrl.dram.perBankRdBursts::7       1054082                       # Per bank write bursts (Count)
system.mem_ctrl.dram.perBankRdBursts::8       1054067                       # Per bank write bursts (Count)
system.mem_ctrl.dram.perBankRdBursts::9       1054042                       # Per bank write bursts (Count)
system.mem_ctrl.dram.perBankRdBursts::10      1054074                       # Per bank write bursts (Count)
system.mem_ctrl.dram.perBankRdBursts::11      1054034                       # Per bank write bursts (Count)
system.mem_ctrl.dram.perBankRdBursts::12      1054034                       # Per bank write bursts (Count)
system.mem_ctrl.dram.perBankRdBursts::13      1054024                       # Per bank write bursts (Count)
system.mem_ctrl.dram.perBankRdBursts::14      1054034                       # Per bank write bursts (Count)
system.mem_ctrl.dram.perBankRdBursts::15      1054023                       # Per bank write bursts (Count)
system.mem_ctrl.dram.perBankWrBursts::0          1024                       # Per bank write bursts (Count)
system.mem_ctrl.dram.perBankWrBursts::1          1025                       # Per bank write bursts (Count)
system.mem_ctrl.dram.perBankWrBursts::2          1069                       # Per bank write bursts (Count)
system.mem_ctrl.dram.perBankWrBursts::3          1049                       # Per bank write bursts (Count)
system.mem_ctrl.dram.perBankWrBursts::4          1048                       # Per bank write bursts (Count)
system.mem_ctrl.dram.perBankWrBursts::5          1024                       # Per bank write bursts (Count)
system.mem_ctrl.dram.perBankWrBursts::6          1062                       # Per bank write bursts (Count)
system.mem_ctrl.dram.perBankWrBursts::7          1060                       # Per bank write bursts (Count)
system.mem_ctrl.dram.perBankWrBursts::8          1029                       # Per bank write bursts (Count)
system.mem_ctrl.dram.perBankWrBursts::9          1024                       # Per bank write bursts (Count)
system.mem_ctrl.dram.perBankWrBursts::10         1024                       # Per bank write bursts (Count)
system.mem_ctrl.dram.perBankWrBursts::11         1024                       # Per bank write bursts (Count)
system.mem_ctrl.dram.perBankWrBursts::12         1024                       # Per bank write bursts (Count)
system.mem_ctrl.dram.perBankWrBursts::13         1024                       # Per bank write bursts (Count)
system.mem_ctrl.dram.perBankWrBursts::14         1025                       # Per bank write bursts (Count)
system.mem_ctrl.dram.perBankWrBursts::15         1024                       # Per bank write bursts (Count)
system.mem_ctrl.dram.totQLat              93767849500                       # Total ticks spent queuing (Tick)
system.mem_ctrl.dram.totBusLat            84316385000                       # Total ticks spent in databus transfers (Tick)
system.mem_ctrl.dram.totMemAccLat        409954293250                       # Total ticks spent from burst creation until serviced by the DRAM (Tick)
system.mem_ctrl.dram.avgQLat                  5560.48                       # Average queueing delay per DRAM burst ((Tick/Count))
system.mem_ctrl.dram.avgBusLat                5000.00                       # Average bus latency per DRAM burst ((Tick/Count))
system.mem_ctrl.dram.avgMemAccLat            24310.48                       # Average memory access latency per DRAM burst ((Tick/Count))
system.mem_ctrl.dram.readRowHits             14364791                       # Number of row buffer hits during reads (Count)
system.mem_ctrl.dram.writeRowHits               14655                       # Number of row buffer hits during writes (Count)
system.mem_ctrl.dram.readRowHitRate             85.18                       # Row buffer hit rate for reads (Ratio)
system.mem_ctrl.dram.writeRowHitRate            88.50                       # Row buffer hit rate for writes (Ratio)
system.mem_ctrl.dram.bytesPerActivate::samples      2500386                       # Bytes accessed per row activation (Byte)
system.mem_ctrl.dram.bytesPerActivate::mean   432.056682                       # Bytes accessed per row activation (Byte)
system.mem_ctrl.dram.bytesPerActivate::gmean   386.919292                       # Bytes accessed per row activation (Byte)
system.mem_ctrl.dram.bytesPerActivate::stdev   143.375125                       # Bytes accessed per row activation (Byte)
system.mem_ctrl.dram.bytesPerActivate::0-127       146796      5.87%      5.87% # Bytes accessed per row activation (Byte)
system.mem_ctrl.dram.bytesPerActivate::128-255       217621      8.70%     14.57% # Bytes accessed per row activation (Byte)
system.mem_ctrl.dram.bytesPerActivate::256-383       207977      8.32%     22.89% # Bytes accessed per row activation (Byte)
system.mem_ctrl.dram.bytesPerActivate::384-511       140289      5.61%     28.50% # Bytes accessed per row activation (Byte)
system.mem_ctrl.dram.bytesPerActivate::512-639      1786869     71.46%     99.97% # Bytes accessed per row activation (Byte)
system.mem_ctrl.dram.bytesPerActivate::640-767           54      0.00%     99.97% # Bytes accessed per row activation (Byte)
system.mem_ctrl.dram.bytesPerActivate::768-895          134      0.01%     99.97% # Bytes accessed per row activation (Byte)
system.mem_ctrl.dram.bytesPerActivate::896-1023          255      0.01%     99.98% # Bytes accessed per row activation (Byte)
system.mem_ctrl.dram.bytesPerActivate::1024-1151          391      0.02%    100.00% # Bytes accessed per row activation (Byte)
system.mem_ctrl.dram.bytesPerActivate::total      2500386                       # Bytes accessed per row activation (Byte)
system.mem_ctrl.dram.dramBytesRead         1079249728                       # Total bytes read (Byte)
system.mem_ctrl.dram.dramBytesWritten         1059776                       # Total bytes written (Byte)
system.mem_ctrl.dram.avgRdBW               474.349042                       # Average DRAM read bandwidth in MiBytes/s ((Byte/Second))
system.mem_ctrl.dram.avgWrBW                 0.465790                       # Average DRAM write bandwidth in MiBytes/s ((Byte/Second))
system.mem_ctrl.dram.peakBW                  12800.00                       # Theoretical peak bandwidth in MiByte/s ((Byte/Second))
system.mem_ctrl.dram.busUtil                     3.71                       # Data bus utilization in percentage (Ratio)
system.mem_ctrl.dram.busUtilRead                 3.71                       # Data bus utilization in percentage for reads (Ratio)
system.mem_ctrl.dram.busUtilWrite                0.00                       # Data bus utilization in percentage for writes (Ratio)
system.mem_ctrl.dram.pageHitRate                85.19                       # Row buffer hit rate, read and write combined (Ratio)
system.mem_ctrl.dram.power_state.pwrStateResidencyTicks::UNDEFINED 2275222743000                       # Cumulative time (in ticks) in various power states (Tick)
system.mem_ctrl.dram.rank0.actEnergy       9156771540                       # Energy for activate commands per rank (pJ) (Joule)
system.mem_ctrl.dram.rank0.preEnergy       4866928110                       # Energy for precharge commands per rank (pJ) (Joule)
system.mem_ctrl.dram.rank0.readEnergy     60196947300                       # Energy for read commands per rank (pJ) (Joule)
system.mem_ctrl.dram.rank0.writeEnergy       43644420                       # Energy for write commands per rank (pJ) (Joule)
system.mem_ctrl.dram.rank0.refreshEnergy 179603954400.000031                       # Energy for refresh commands per rank (pJ) (Joule)
system.mem_ctrl.dram.rank0.actBackEnergy 765248397360                       # Energy for active background per rank (pJ) (Joule)
system.mem_ctrl.dram.rank0.preBackEnergy 229265830560                       # Energy for precharge background per rank (pJ) (Joule)
system.mem_ctrl.dram.rank0.actPowerDownEnergy            0                       # Energy for active power-down per rank (pJ) (Joule)
system.mem_ctrl.dram.rank0.prePowerDownEnergy            0                       # Energy for precharge power-down per rank (pJ) (Joule)
system.mem_ctrl.dram.rank0.selfRefreshEnergy            0                       # Energy for self refresh per rank (pJ) (Joule)
system.mem_ctrl.dram.rank0.totalEnergy   1248382473690                       # Total energy per rank (pJ) (Joule)
system.mem_ctrl.dram.rank0.averagePower    548.685828                       # Core power per rank (mW) (Watt)
system.mem_ctrl.dram.rank0.totalIdleTime            0                       # Total Idle time Per DRAM Rank (Tick)
system.mem_ctrl.dram.rank0.pwrStateTime::IDLE 588977903750                       # Time in different power states (Tick)
system.mem_ctrl.dram.rank0.pwrStateTime::REF  75974600000                       # Time in different power states (Tick)
system.mem_ctrl.dram.rank0.pwrStateTime::SREF            0                       # Time in different power states (Tick)
system.mem_ctrl.dram.rank0.pwrStateTime::PRE_PDN            0                       # Time in different power states (Tick)
system.mem_ctrl.dram.rank0.pwrStateTime::ACT 1610270239250                       # Time in different power states (Tick)
system.mem_ctrl.dram.rank0.pwrStateTime::ACT_PDN            0                       # Time in different power states (Tick)
system.mem_ctrl.dram.rank1.actEnergy       8696013060                       # Energy for activate commands per rank (pJ) (Joule)
system.mem_ctrl.dram.rank1.preEnergy       4622036760                       # Energy for precharge commands per rank (pJ) (Joule)
system.mem_ctrl.dram.rank1.readEnergy     60206850480                       # Energy for read commands per rank (pJ) (Joule)
system.mem_ctrl.dram.rank1.writeEnergy       42793560                       # Energy for write commands per rank (pJ) (Joule)
system.mem_ctrl.dram.rank1.refreshEnergy 179603954400.000031                       # Energy for refresh commands per rank (pJ) (Joule)
system.mem_ctrl.dram.rank1.actBackEnergy 763580306610                       # Energy for active background per rank (pJ) (Joule)
system.mem_ctrl.dram.rank1.preBackEnergy 230670538560                       # Energy for precharge background per rank (pJ) (Joule)
system.mem_ctrl.dram.rank1.actPowerDownEnergy            0                       # Energy for active power-down per rank (pJ) (Joule)
system.mem_ctrl.dram.rank1.prePowerDownEnergy            0                       # Energy for precharge power-down per rank (pJ) (Joule)
system.mem_ctrl.dram.rank1.selfRefreshEnergy            0                       # Energy for self refresh per rank (pJ) (Joule)
system.mem_ctrl.dram.rank1.totalEnergy   1247422493430                       # Total energy per rank (pJ) (Joule)
system.mem_ctrl.dram.rank1.averagePower    548.263900                       # Core power per rank (mW) (Watt)
system.mem_ctrl.dram.rank1.totalIdleTime            0                       # Total Idle time Per DRAM Rank (Tick)
system.mem_ctrl.dram.rank1.pwrStateTime::IDLE 592730389750                       # Time in different power states (Tick)
system.mem_ctrl.dram.rank1.pwrStateTime::REF  75974600000                       # Time in different power states (Tick)
system.mem_ctrl.dram.rank1.pwrStateTime::SREF            0                       # Time in different power states (Tick)
system.mem_ctrl.dram.rank1.pwrStateTime::PRE_PDN            0                       # Time in different power states (Tick)
system.mem_ctrl.dram.rank1.pwrStateTime::ACT 1606517753250                       # Time in different power states (Tick)
system.mem_ctrl.dram.rank1.pwrStateTime::ACT_PDN            0                       # Time in different power states (Tick)
system.mem_ctrl.power_state.pwrStateResidencyTicks::UNDEFINED 2275222743000                       # Cumulative time (in ticks) in various power states (Tick)
system.membus.transDist::ReadResp            16848545                       # Transaction distribution (Count)
system.membus.transDist::WritebackDirty         77948                       # Transaction distribution (Count)
system.membus.transDist::CleanEvict          16846312                       # Transaction distribution (Count)
system.membus.transDist::ReadExReq              77969                       # Transaction distribution (Count)
system.membus.transDist::ReadExResp             77969                       # Transaction distribution (Count)
system.membus.transDist::ReadSharedReq       16848545                       # Transaction distribution (Count)
system.membus.pktCount_system.l2cache.mem_side_port::system.mem_ctrl.port     50777288                       # Packet count per connected requestor and responder (Count)
system.membus.pktCount::total                50777288                       # Packet count per connected requestor and responder (Count)
system.membus.pktSize_system.l2cache.mem_side_port::system.mem_ctrl.port   1088285568                       # Cumulative packet size per connected requestor and responder (Byte)
system.membus.pktSize::total               1088285568                       # Cumulative packet size per connected requestor and responder (Byte)
system.membus.snoops                                0                       # Total snoops (Count)
system.membus.snoopTraffic                          0                       # Total snoop traffic (Byte)
system.membus.snoopFanout::samples           16926514                       # Request fanout histogram (Count)
system.membus.snoopFanout::mean                     0                       # Request fanout histogram (Count)
system.membus.snoopFanout::stdev                    0                       # Request fanout histogram (Count)
system.membus.snoopFanout::underflows               0      0.00%      0.00% # Request fanout histogram (Count)
system.membus.snoopFanout::0                 16926514    100.00%    100.00% # Request fanout histogram (Count)
system.membus.snoopFanout::1                        0      0.00%    100.00% # Request fanout histogram (Count)
system.membus.snoopFanout::overflows                0      0.00%    100.00% # Request fanout histogram (Count)
system.membus.snoopFanout::min_value                0                       # Request fanout histogram (Count)
system.membus.snoopFanout::max_value                0                       # Request fanout histogram (Count)
system.membus.snoopFanout::total             16926514                       # Request fanout histogram (Count)
system.membus.power_state.pwrStateResidencyTicks::UNDEFINED 2275222743000                       # Cumulative time (in ticks) in various power states (Tick)
system.membus.reqLayer0.occupancy         34162566000                       # Layer occupancy (ticks) (Tick)
system.membus.reqLayer0.utilization               0.0                       # Layer utilization (Ratio)
system.membus.respLayer0.occupancy        89465449750                       # Layer occupancy (ticks) (Tick)
system.membus.respLayer0.utilization              0.0                       # Layer utilization (Ratio)
system.membus.snoop_filter.totRequests       33850774                       # Total number of requests made to the snoop filter. (Count)
system.membus.snoop_filter.hitSingleRequests     16924260                       # Number of requests hitting in the snoop filter with a single holder of the requested data. (Count)
system.membus.snoop_filter.hitMultiRequests            0                       # Number of requests hitting in the snoop filter with multiple (>1) holders of the requested data. (Count)
system.membus.snoop_filter.totSnoops                0                       # Total number of snoops made to the snoop filter. (Count)
system.membus.snoop_filter.hitSingleSnoops            0                       # Number of snoops hitting in the snoop filter with a single holder of the requested data. (Count)
system.membus.snoop_filter.hitMultiSnoops            0                       # Number of snoops hitting in the snoop filter with multiple (>1) holders of the requested data. (Count)
system.workload.inst.arm                            0                       # number of arm instructions executed (Count)
system.workload.inst.quiesce                        0                       # number of quiesce instructions executed (Count)

---------- End Simulation Statistics   ----------
