
---------- Begin Simulation Statistics ----------
simSeconds                                   4.323246                       # Number of seconds simulated (Second)
simTicks                                 4323246257000                       # Number of ticks simulated (Tick)
finalTick                                4323246257000                       # Number of ticks from beginning of simulation (restored from checkpoints and never reset) (Tick)
simFreq                                  1000000000000                       # The number of ticks per simulated second ((Tick/Second))
hostSeconds                                   1292.10                       # Real time elapsed on the host (Second)
hostTickRate                               3345912927                       # The number of ticks simulated per host second (ticks/s) ((Tick/Second))
hostMemory                                     692108                       # Number of bytes of host memory used (Byte)
simInsts                                   1162542625                       # Number of instructions simulated (Count)
simOps                                     1162542737                       # Number of ops (including micro ops) simulated (Count)
hostInstRate                                   899733                       # Simulator instruction rate (inst/s) ((Count/Second))
hostOpRate                                     899733                       # Simulator op (including micro ops) rate (op/s) ((Count/Second))
system.clk_domain.clock                          1000                       # Clock period in ticks (Tick)
system.clk_domain.voltage_domain.voltage            1                       # Voltage in Volts (Volt)
system.cpu.numCycles                       4323246257                       # Number of cpu cycles simulated (Cycle)
system.cpu.cpi                               3.718785                       # CPI: cycles per instruction (core level) ((Cycle/Count))
system.cpu.ipc                               0.268905                       # IPC: instructions per cycle (core level) ((Count/Cycle))
system.cpu.numWorkItemsStarted                      0                       # Number of work items this cpu started (Count)
system.cpu.numWorkItemsCompleted                    0                       # Number of work items this cpu completed (Count)
system.cpu.issuedInstType_0::No_OpClass           172      0.00%      0.00% # Number of insts issued per FU, per thread (Count)
system.cpu.issuedInstType_0::IntAlu         854937316     73.54%     73.54% # Number of insts issued per FU, per thread (Count)
system.cpu.issuedInstType_0::IntMult                8      0.00%     73.54% # Number of insts issued per FU, per thread (Count)
system.cpu.issuedInstType_0::IntDiv               403      0.00%     73.54% # Number of insts issued per FU, per thread (Count)
system.cpu.issuedInstType_0::FloatAdd               0      0.00%     73.54% # Number of insts issued per FU, per thread (Count)
system.cpu.issuedInstType_0::FloatCmp               0      0.00%     73.54% # Number of insts issued per FU, per thread (Count)
system.cpu.issuedInstType_0::FloatCvt               0      0.00%     73.54% # Number of insts issued per FU, per thread (Count)
system.cpu.issuedInstType_0::FloatMult              0      0.00%     73.54% # Number of insts issued per FU, per thread (Count)
system.cpu.issuedInstType_0::FloatMultAcc            0      0.00%     73.54% # Number of insts issued per FU, per thread (Count)
system.cpu.issuedInstType_0::FloatDiv               0      0.00%     73.54% # Number of insts issued per FU, per thread (Count)
system.cpu.issuedInstType_0::FloatMisc              0      0.00%     73.54% # Number of insts issued per FU, per thread (Count)
system.cpu.issuedInstType_0::FloatSqrt              0      0.00%     73.54% # Number of insts issued per FU, per thread (Count)
system.cpu.issuedInstType_0::SimdAdd                0      0.00%     73.54% # Number of insts issued per FU, per thread (Count)
system.cpu.issuedInstType_0::SimdAddAcc             0      0.00%     73.54% # Number of insts issued per FU, per thread (Count)
system.cpu.issuedInstType_0::SimdAlu                0      0.00%     73.54% # Number of insts issued per FU, per thread (Count)
system.cpu.issuedInstType_0::SimdCmp                0      0.00%     73.54% # Number of insts issued per FU, per thread (Count)
system.cpu.issuedInstType_0::SimdCvt                0      0.00%     73.54% # Number of insts issued per FU, per thread (Count)
system.cpu.issuedInstType_0::SimdMisc               0      0.00%     73.54% # Number of insts issued per FU, per thread (Count)
system.cpu.issuedInstType_0::SimdMult               0      0.00%     73.54% # Number of insts issued per FU, per thread (Count)
system.cpu.issuedInstType_0::SimdMultAcc            0      0.00%     73.54% # Number of insts issued per FU, per thread (Count)
system.cpu.issuedInstType_0::SimdMatMultAcc            0      0.00%     73.54% # Number of insts issued per FU, per thread (Count)
system.cpu.issuedInstType_0::SimdShift              0      0.00%     73.54% # Number of insts issued per FU, per thread (Count)
system.cpu.issuedInstType_0::SimdShiftAcc            0      0.00%     73.54% # Number of insts issued per FU, per thread (Count)
system.cpu.issuedInstType_0::SimdDiv                0      0.00%     73.54% # Number of insts issued per FU, per thread (Count)
system.cpu.issuedInstType_0::SimdSqrt               0      0.00%     73.54% # Number of insts issued per FU, per thread (Count)
system.cpu.issuedInstType_0::SimdFloatAdd            0      0.00%     73.54% # Number of insts issued per FU, per thread (Count)
system.cpu.issuedInstType_0::SimdFloatAlu            0      0.00%     73.54% # Number of insts issued per FU, per thread (Count)
system.cpu.issuedInstType_0::SimdFloatCmp            0      0.00%     73.54% # Number of insts issued per FU, per thread (Count)
system.cpu.issuedInstType_0::SimdFloatCvt            0      0.00%     73.54% # Number of insts issued per FU, per thread (Count)
system.cpu.issuedInstType_0::SimdFloatDiv            0      0.00%     73.54% # Number of insts issued per FU, per thread (Count)
system.cpu.issuedInstType_0::SimdFloatMisc            0      0.00%     73.54% # Number of insts issued per FU, per thread (Count)
system.cpu.issuedInstType_0::SimdFloatMult            0      0.00%     73.54% # Number of insts issued per FU, per thread (Count)
system.cpu.issuedInstType_0::SimdFloatMultAcc            0      0.00%     73.54% # Number of insts issued per FU, per thread (Count)
system.cpu.issuedInstType_0::SimdFloatMatMultAcc            0      0.00%     73.54% # Number of insts issued per FU, per thread (Count)
system.cpu.issuedInstType_0::SimdFloatSqrt            0      0.00%     73.54% # Number of insts issued per FU, per thread (Count)
system.cpu.issuedInstType_0::SimdReduceAdd            0      0.00%     73.54% # Number of insts issued per FU, per thread (Count)
system.cpu.issuedInstType_0::SimdReduceAlu            0      0.00%     73.54% # Number of insts issued per FU, per thread (Count)
system.cpu.issuedInstType_0::SimdReduceCmp            0      0.00%     73.54% # Number of insts issued per FU, per thread (Count)
system.cpu.issuedInstType_0::SimdFloatReduceAdd            0      0.00%     73.54% # Number of insts issued per FU, per thread (Count)
system.cpu.issuedInstType_0::SimdFloatReduceCmp            0      0.00%     73.54% # Number of insts issued per FU, per thread (Count)
system.cpu.issuedInstType_0::SimdAes                0      0.00%     73.54% # Number of insts issued per FU, per thread (Count)
system.cpu.issuedInstType_0::SimdAesMix             0      0.00%     73.54% # Number of insts issued per FU, per thread (Count)
system.cpu.issuedInstType_0::SimdSha1Hash            0      0.00%     73.54% # Number of insts issued per FU, per thread (Count)
system.cpu.issuedInstType_0::SimdSha1Hash2            0      0.00%     73.54% # Number of insts issued per FU, per thread (Count)
system.cpu.issuedInstType_0::SimdSha256Hash            0      0.00%     73.54% # Number of insts issued per FU, per thread (Count)
system.cpu.issuedInstType_0::SimdSha256Hash2            0      0.00%     73.54% # Number of insts issued per FU, per thread (Count)
system.cpu.issuedInstType_0::SimdShaSigma2            0      0.00%     73.54% # Number of insts issued per FU, per thread (Count)
system.cpu.issuedInstType_0::SimdShaSigma3            0      0.00%     73.54% # Number of insts issued per FU, per thread (Count)
system.cpu.issuedInstType_0::SimdSha3               0      0.00%     73.54% # Number of insts issued per FU, per thread (Count)
system.cpu.issuedInstType_0::SimdSm4e               0      0.00%     73.54% # Number of insts issued per FU, per thread (Count)
system.cpu.issuedInstType_0::SimdCrc                0      0.00%     73.54% # Number of insts issued per FU, per thread (Count)
system.cpu.issuedInstType_0::SimdPredAlu            0      0.00%     73.54% # Number of insts issued per FU, per thread (Count)
system.cpu.issuedInstType_0::SimdDotProd            0      0.00%     73.54% # Number of insts issued per FU, per thread (Count)
system.cpu.issuedInstType_0::Matrix                 0      0.00%     73.54% # Number of insts issued per FU, per thread (Count)
system.cpu.issuedInstType_0::MatrixMov              0      0.00%     73.54% # Number of insts issued per FU, per thread (Count)
system.cpu.issuedInstType_0::MatrixOP               0      0.00%     73.54% # Number of insts issued per FU, per thread (Count)
system.cpu.issuedInstType_0::MemRead        180719916     15.55%     89.09% # Number of insts issued per FU, per thread (Count)
system.cpu.issuedInstType_0::MemWrite       126884910     10.91%    100.00% # Number of insts issued per FU, per thread (Count)
system.cpu.issuedInstType_0::FloatMemRead            0      0.00%    100.00% # Number of insts issued per FU, per thread (Count)
system.cpu.issuedInstType_0::FloatMemWrite           12      0.00%    100.00% # Number of insts issued per FU, per thread (Count)
system.cpu.issuedInstType_0::InstPrefetch            0      0.00%    100.00% # Number of insts issued per FU, per thread (Count)
system.cpu.issuedInstType_0::SimdUnitStrideLoad            0      0.00%    100.00% # Number of insts issued per FU, per thread (Count)
system.cpu.issuedInstType_0::SimdUnitStrideStore            0      0.00%    100.00% # Number of insts issued per FU, per thread (Count)
system.cpu.issuedInstType_0::SimdUnitStrideMaskLoad            0      0.00%    100.00% # Number of insts issued per FU, per thread (Count)
system.cpu.issuedInstType_0::SimdUnitStrideMaskStore            0      0.00%    100.00% # Number of insts issued per FU, per thread (Count)
system.cpu.issuedInstType_0::SimdStridedLoad            0      0.00%    100.00% # Number of insts issued per FU, per thread (Count)
system.cpu.issuedInstType_0::SimdStridedStore            0      0.00%    100.00% # Number of insts issued per FU, per thread (Count)
system.cpu.issuedInstType_0::SimdIndexedLoad            0      0.00%    100.00% # Number of insts issued per FU, per thread (Count)
system.cpu.issuedInstType_0::SimdIndexedStore            0      0.00%    100.00% # Number of insts issued per FU, per thread (Count)
system.cpu.issuedInstType_0::SimdWholeRegisterLoad            0      0.00%    100.00% # Number of insts issued per FU, per thread (Count)
system.cpu.issuedInstType_0::SimdWholeRegisterStore            0      0.00%    100.00% # Number of insts issued per FU, per thread (Count)
system.cpu.issuedInstType_0::SimdUnitStrideFaultOnlyFirstLoad            0      0.00%    100.00% # Number of insts issued per FU, per thread (Count)
system.cpu.issuedInstType_0::SimdUnitStrideSegmentedLoad            0      0.00%    100.00% # Number of insts issued per FU, per thread (Count)
system.cpu.issuedInstType_0::SimdUnitStrideSegmentedStore            0      0.00%    100.00% # Number of insts issued per FU, per thread (Count)
system.cpu.issuedInstType_0::SimdUnitStrideSegmentedFaultOnlyFirstLoad            0      0.00%    100.00% # Number of insts issued per FU, per thread (Count)
system.cpu.issuedInstType_0::SimdStrideSegmentedLoad            0      0.00%    100.00% # Number of insts issued per FU, per thread (Count)
system.cpu.issuedInstType_0::SimdStrideSegmentedStore            0      0.00%    100.00% # Number of insts issued per FU, per thread (Count)
system.cpu.issuedInstType_0::SimdExt                0      0.00%    100.00% # Number of insts issued per FU, per thread (Count)
system.cpu.issuedInstType_0::SimdFloatExt            0      0.00%    100.00% # Number of insts issued per FU, per thread (Count)
system.cpu.issuedInstType_0::SimdConfig             0      0.00%    100.00% # Number of insts issued per FU, per thread (Count)
system.cpu.issuedInstType_0::SimdBf16Add            0      0.00%    100.00% # Number of insts issued per FU, per thread (Count)
system.cpu.issuedInstType_0::SimdBf16Cmp            0      0.00%    100.00% # Number of insts issued per FU, per thread (Count)
system.cpu.issuedInstType_0::SimdBf16Cvt            0      0.00%    100.00% # Number of insts issued per FU, per thread (Count)
system.cpu.issuedInstType_0::SimdBf16DotProd            0      0.00%    100.00% # Number of insts issued per FU, per thread (Count)
system.cpu.issuedInstType_0::SimdBf16MatMultAcc            0      0.00%    100.00% # Number of insts issued per FU, per thread (Count)
system.cpu.issuedInstType_0::SimdBf16Mult            0      0.00%    100.00% # Number of insts issued per FU, per thread (Count)
system.cpu.issuedInstType_0::SimdBf16MultAcc            0      0.00%    100.00% # Number of insts issued per FU, per thread (Count)
system.cpu.issuedInstType_0::Bf16Cvt                0      0.00%    100.00% # Number of insts issued per FU, per thread (Count)
system.cpu.issuedInstType_0::System                 0      0.00%    100.00% # Number of insts issued per FU, per thread (Count)
system.cpu.issuedInstType_0::total         1162542737                       # Number of insts issued per FU, per thread (Count)
system.cpu.commitStats0.numInsts           1162542625                       # Number of instructions committed (thread level) (Count)
system.cpu.commitStats0.numOps             1162542737                       # Number of ops (including micro ops) committed (thread level) (Count)
system.cpu.commitStats0.numInstsNotNOP     1162542625                       # Number of instructions committed excluding NOPs or prefetches (Count)
system.cpu.commitStats0.numOpsNotNOP       1162542737                       # Number of Ops (including micro ops) Simulated (Count)
system.cpu.commitStats0.numUserInsts       1162542625                       # Numbrer of instructions committed in user mode (Count)
system.cpu.commitStats0.numUserOps         1162542737                       # Number of ops committed in user mode (Count)
system.cpu.commitStats0.ratioUserInsts              1                       # Ratio of instructions committed in user mode (Ratio)
system.cpu.commitStats0.ratioUserOps                1                       # Ratio of ops committed in user mode (Ratio)
system.cpu.commitStats0.cpi                  3.718785                       # CPI: cycles per instruction (thread level) ((Cycle/Count))
system.cpu.commitStats0.ipc                  0.268905                       # IPC: instructions per cycle (thread level) ((Count/Cycle))
system.cpu.commitStats0.numMemRefs          307604838                       # Number of memory references committed (Count)
system.cpu.commitStats0.numFpInsts                 12                       # Number of float instructions (Count)
system.cpu.commitStats0.numIntInsts        1152386359                       # Number of integer instructions (Count)
system.cpu.commitStats0.numLoadInsts        180719793                       # Number of load instructions (Count)
system.cpu.commitStats0.numStoreInsts       126885045                       # Number of store instructions (Count)
system.cpu.commitStats0.numVecInsts                 0                       # Number of vector instructions (Count)
system.cpu.commitStats0.committedInstType::No_OpClass          172      0.00%      0.00% # Class of committed instruction. (Count)
system.cpu.commitStats0.committedInstType::IntAlu    854937316     73.54%     73.54% # Class of committed instruction. (Count)
system.cpu.commitStats0.committedInstType::IntMult            8      0.00%     73.54% # Class of committed instruction. (Count)
system.cpu.commitStats0.committedInstType::IntDiv          403      0.00%     73.54% # Class of committed instruction. (Count)
system.cpu.commitStats0.committedInstType::FloatAdd            0      0.00%     73.54% # Class of committed instruction. (Count)
system.cpu.commitStats0.committedInstType::FloatCmp            0      0.00%     73.54% # Class of committed instruction. (Count)
system.cpu.commitStats0.committedInstType::FloatCvt            0      0.00%     73.54% # Class of committed instruction. (Count)
system.cpu.commitStats0.committedInstType::FloatMult            0      0.00%     73.54% # Class of committed instruction. (Count)
system.cpu.commitStats0.committedInstType::FloatMultAcc            0      0.00%     73.54% # Class of committed instruction. (Count)
system.cpu.commitStats0.committedInstType::FloatDiv            0      0.00%     73.54% # Class of committed instruction. (Count)
system.cpu.commitStats0.committedInstType::FloatMisc            0      0.00%     73.54% # Class of committed instruction. (Count)
system.cpu.commitStats0.committedInstType::FloatSqrt            0      0.00%     73.54% # Class of committed instruction. (Count)
system.cpu.commitStats0.committedInstType::SimdAdd            0      0.00%     73.54% # Class of committed instruction. (Count)
system.cpu.commitStats0.committedInstType::SimdAddAcc            0      0.00%     73.54% # Class of committed instruction. (Count)
system.cpu.commitStats0.committedInstType::SimdAlu            0      0.00%     73.54% # Class of committed instruction. (Count)
system.cpu.commitStats0.committedInstType::SimdCmp            0      0.00%     73.54% # Class of committed instruction. (Count)
system.cpu.commitStats0.committedInstType::SimdCvt            0      0.00%     73.54% # Class of committed instruction. (Count)
system.cpu.commitStats0.committedInstType::SimdMisc            0      0.00%     73.54% # Class of committed instruction. (Count)
system.cpu.commitStats0.committedInstType::SimdMult            0      0.00%     73.54% # Class of committed instruction. (Count)
system.cpu.commitStats0.committedInstType::SimdMultAcc            0      0.00%     73.54% # Class of committed instruction. (Count)
system.cpu.commitStats0.committedInstType::SimdMatMultAcc            0      0.00%     73.54% # Class of committed instruction. (Count)
system.cpu.commitStats0.committedInstType::SimdShift            0      0.00%     73.54% # Class of committed instruction. (Count)
system.cpu.commitStats0.committedInstType::SimdShiftAcc            0      0.00%     73.54% # Class of committed instruction. (Count)
system.cpu.commitStats0.committedInstType::SimdDiv            0      0.00%     73.54% # Class of committed instruction. (Count)
system.cpu.commitStats0.committedInstType::SimdSqrt            0      0.00%     73.54% # Class of committed instruction. (Count)
system.cpu.commitStats0.committedInstType::SimdFloatAdd            0      0.00%     73.54% # Class of committed instruction. (Count)
system.cpu.commitStats0.committedInstType::SimdFloatAlu            0      0.00%     73.54% # Class of committed instruction. (Count)
system.cpu.commitStats0.committedInstType::SimdFloatCmp            0      0.00%     73.54% # Class of committed instruction. (Count)
system.cpu.commitStats0.committedInstType::SimdFloatCvt            0      0.00%     73.54% # Class of committed instruction. (Count)
system.cpu.commitStats0.committedInstType::SimdFloatDiv            0      0.00%     73.54% # Class of committed instruction. (Count)
system.cpu.commitStats0.committedInstType::SimdFloatMisc            0      0.00%     73.54% # Class of committed instruction. (Count)
system.cpu.commitStats0.committedInstType::SimdFloatMult            0      0.00%     73.54% # Class of committed instruction. (Count)
system.cpu.commitStats0.committedInstType::SimdFloatMultAcc            0      0.00%     73.54% # Class of committed instruction. (Count)
system.cpu.commitStats0.committedInstType::SimdFloatMatMultAcc            0      0.00%     73.54% # Class of committed instruction. (Count)
system.cpu.commitStats0.committedInstType::SimdFloatSqrt            0      0.00%     73.54% # Class of committed instruction. (Count)
system.cpu.commitStats0.committedInstType::SimdReduceAdd            0      0.00%     73.54% # Class of committed instruction. (Count)
system.cpu.commitStats0.committedInstType::SimdReduceAlu            0      0.00%     73.54% # Class of committed instruction. (Count)
system.cpu.commitStats0.committedInstType::SimdReduceCmp            0      0.00%     73.54% # Class of committed instruction. (Count)
system.cpu.commitStats0.committedInstType::SimdFloatReduceAdd            0      0.00%     73.54% # Class of committed instruction. (Count)
system.cpu.commitStats0.committedInstType::SimdFloatReduceCmp            0      0.00%     73.54% # Class of committed instruction. (Count)
system.cpu.commitStats0.committedInstType::SimdAes            0      0.00%     73.54% # Class of committed instruction. (Count)
system.cpu.commitStats0.committedInstType::SimdAesMix            0      0.00%     73.54% # Class of committed instruction. (Count)
system.cpu.commitStats0.committedInstType::SimdSha1Hash            0      0.00%     73.54% # Class of committed instruction. (Count)
system.cpu.commitStats0.committedInstType::SimdSha1Hash2            0      0.00%     73.54% # Class of committed instruction. (Count)
system.cpu.commitStats0.committedInstType::SimdSha256Hash            0      0.00%     73.54% # Class of committed instruction. (Count)
system.cpu.commitStats0.committedInstType::SimdSha256Hash2            0      0.00%     73.54% # Class of committed instruction. (Count)
system.cpu.commitStats0.committedInstType::SimdShaSigma2            0      0.00%     73.54% # Class of committed instruction. (Count)
system.cpu.commitStats0.committedInstType::SimdShaSigma3            0      0.00%     73.54% # Class of committed instruction. (Count)
system.cpu.commitStats0.committedInstType::SimdSha3            0      0.00%     73.54% # Class of committed instruction. (Count)
system.cpu.commitStats0.committedInstType::SimdSm4e            0      0.00%     73.54% # Class of committed instruction. (Count)
system.cpu.commitStats0.committedInstType::SimdCrc            0      0.00%     73.54% # Class of committed instruction. (Count)
system.cpu.commitStats0.committedInstType::SimdPredAlu            0      0.00%     73.54% # Class of committed instruction. (Count)
system.cpu.commitStats0.committedInstType::SimdDotProd            0      0.00%     73.54% # Class of committed instruction. (Count)
system.cpu.commitStats0.committedInstType::Matrix            0      0.00%     73.54% # Class of committed instruction. (Count)
system.cpu.commitStats0.committedInstType::MatrixMov            0      0.00%     73.54% # Class of committed instruction. (Count)
system.cpu.commitStats0.committedInstType::MatrixOP            0      0.00%     73.54% # Class of committed instruction. (Count)
system.cpu.commitStats0.committedInstType::MemRead    180719916     15.55%     89.09% # Class of committed instruction. (Count)
system.cpu.commitStats0.committedInstType::MemWrite    126884910     10.91%    100.00% # Class of committed instruction. (Count)
system.cpu.commitStats0.committedInstType::FloatMemRead            0      0.00%    100.00% # Class of committed instruction. (Count)
system.cpu.commitStats0.committedInstType::FloatMemWrite           12      0.00%    100.00% # Class of committed instruction. (Count)
system.cpu.commitStats0.committedInstType::InstPrefetch            0      0.00%    100.00% # Class of committed instruction. (Count)
system.cpu.commitStats0.committedInstType::SimdUnitStrideLoad            0      0.00%    100.00% # Class of committed instruction. (Count)
system.cpu.commitStats0.committedInstType::SimdUnitStrideStore            0      0.00%    100.00% # Class of committed instruction. (Count)
system.cpu.commitStats0.committedInstType::SimdUnitStrideMaskLoad            0      0.00%    100.00% # Class of committed instruction. (Count)
system.cpu.commitStats0.committedInstType::SimdUnitStrideMaskStore            0      0.00%    100.00% # Class of committed instruction. (Count)
system.cpu.commitStats0.committedInstType::SimdStridedLoad            0      0.00%    100.00% # Class of committed instruction. (Count)
system.cpu.commitStats0.committedInstType::SimdStridedStore            0      0.00%    100.00% # Class of committed instruction. (Count)
system.cpu.commitStats0.committedInstType::SimdIndexedLoad            0      0.00%    100.00% # Class of committed instruction. (Count)
system.cpu.commitStats0.committedInstType::SimdIndexedStore            0      0.00%    100.00% # Class of committed instruction. (Count)
system.cpu.commitStats0.committedInstType::SimdWholeRegisterLoad            0      0.00%    100.00% # Class of committed instruction. (Count)
system.cpu.commitStats0.committedInstType::SimdWholeRegisterStore            0      0.00%    100.00% # Class of committed instruction. (Count)
system.cpu.commitStats0.committedInstType::SimdUnitStrideFaultOnlyFirstLoad            0      0.00%    100.00% # Class of committed instruction. (Count)
system.cpu.commitStats0.committedInstType::SimdUnitStrideSegmentedLoad            0      0.00%    100.00% # Class of committed instruction. (Count)
system.cpu.commitStats0.committedInstType::SimdUnitStrideSegmentedStore            0      0.00%    100.00% # Class of committed instruction. (Count)
system.cpu.commitStats0.committedInstType::SimdUnitStrideSegmentedFaultOnlyFirstLoad            0      0.00%    100.00% # Class of committed instruction. (Count)
system.cpu.commitStats0.committedInstType::SimdStrideSegmentedLoad            0      0.00%    100.00% # Class of committed instruction. (Count)
system.cpu.commitStats0.committedInstType::SimdStrideSegmentedStore            0      0.00%    100.00% # Class of committed instruction. (Count)
system.cpu.commitStats0.committedInstType::SimdExt            0      0.00%    100.00% # Class of committed instruction. (Count)
system.cpu.commitStats0.committedInstType::SimdFloatExt            0      0.00%    100.00% # Class of committed instruction. (Count)
system.cpu.commitStats0.committedInstType::SimdConfig            0      0.00%    100.00% # Class of committed instruction. (Count)
system.cpu.commitStats0.committedInstType::SimdBf16Add            0      0.00%    100.00% # Class of committed instruction. (Count)
system.cpu.commitStats0.committedInstType::SimdBf16Cmp            0      0.00%    100.00% # Class of committed instruction. (Count)
system.cpu.commitStats0.committedInstType::SimdBf16Cvt            0      0.00%    100.00% # Class of committed instruction. (Count)
system.cpu.commitStats0.committedInstType::SimdBf16DotProd            0      0.00%    100.00% # Class of committed instruction. (Count)
system.cpu.commitStats0.committedInstType::SimdBf16MatMultAcc            0      0.00%    100.00% # Class of committed instruction. (Count)
system.cpu.commitStats0.committedInstType::SimdBf16Mult            0      0.00%    100.00% # Class of committed instruction. (Count)
system.cpu.commitStats0.committedInstType::SimdBf16MultAcc            0      0.00%    100.00% # Class of committed instruction. (Count)
system.cpu.commitStats0.committedInstType::Bf16Cvt            0      0.00%    100.00% # Class of committed instruction. (Count)
system.cpu.commitStats0.committedInstType::System            0      0.00%    100.00% # Class of committed instruction. (Count)
system.cpu.commitStats0.committedInstType::total   1162542737                       # Class of committed instruction. (Count)
system.cpu.commitStats0.committedControl::IsControl    240706924                       # Class of control type instructions committed (Count)
system.cpu.commitStats0.committedControl::IsDirectControl    238084483                       # Class of control type instructions committed (Count)
system.cpu.commitStats0.committedControl::IsIndirectControl      2622441                       # Class of control type instructions committed (Count)
system.cpu.commitStats0.committedControl::IsCondControl    225306086                       # Class of control type instructions committed (Count)
system.cpu.commitStats0.committedControl::IsUncondControl     15400838                       # Class of control type instructions committed (Count)
system.cpu.commitStats0.committedControl::IsCall      2622234                       # Class of control type instructions committed (Count)
system.cpu.commitStats0.committedControl::IsReturn      2622229                       # Class of control type instructions committed (Count)
system.cpu.commitStats0.functionCalls         2622234                       # Number of function calls committed (Count)
system.cpu.commitStats0.numCallsReturns       5244463                       # Number of function calls and returns committed (Count)
system.cpu.dcache.demandHits::cpu.data      302689827                       # number of demand (read+write) hits (Count)
system.cpu.dcache.demandHits::total         302689827                       # number of demand (read+write) hits (Count)
system.cpu.dcache.overallHits::cpu.data     302689827                       # number of overall hits (Count)
system.cpu.dcache.overallHits::total        302689827                       # number of overall hits (Count)
system.cpu.dcache.demandMisses::cpu.data      4914772                       # number of demand (read+write) misses (Count)
system.cpu.dcache.demandMisses::total         4914772                       # number of demand (read+write) misses (Count)
system.cpu.dcache.overallMisses::cpu.data      4914772                       # number of overall misses (Count)
system.cpu.dcache.overallMisses::total        4914772                       # number of overall misses (Count)
system.cpu.dcache.demandMissLatency::cpu.data 549162427000                       # number of demand (read+write) miss ticks (Tick)
system.cpu.dcache.demandMissLatency::total 549162427000                       # number of demand (read+write) miss ticks (Tick)
system.cpu.dcache.overallMissLatency::cpu.data 549162427000                       # number of overall miss ticks (Tick)
system.cpu.dcache.overallMissLatency::total 549162427000                       # number of overall miss ticks (Tick)
system.cpu.dcache.demandAccesses::cpu.data    307604599                       # number of demand (read+write) accesses (Count)
system.cpu.dcache.demandAccesses::total     307604599                       # number of demand (read+write) accesses (Count)
system.cpu.dcache.overallAccesses::cpu.data    307604599                       # number of overall (read+write) accesses (Count)
system.cpu.dcache.overallAccesses::total    307604599                       # number of overall (read+write) accesses (Count)
system.cpu.dcache.demandMissRate::cpu.data     0.015978                       # miss rate for demand accesses (Ratio)
system.cpu.dcache.demandMissRate::total      0.015978                       # miss rate for demand accesses (Ratio)
system.cpu.dcache.overallMissRate::cpu.data     0.015978                       # miss rate for overall accesses (Ratio)
system.cpu.dcache.overallMissRate::total     0.015978                       # miss rate for overall accesses (Ratio)
system.cpu.dcache.demandAvgMissLatency::cpu.data 111737.111508                       # average overall miss latency in ticks ((Tick/Count))
system.cpu.dcache.demandAvgMissLatency::total 111737.111508                       # average overall miss latency in ticks ((Tick/Count))
system.cpu.dcache.overallAvgMissLatency::cpu.data 111737.111508                       # average overall miss latency ((Tick/Count))
system.cpu.dcache.overallAvgMissLatency::total 111737.111508                       # average overall miss latency ((Tick/Count))
system.cpu.dcache.blockedCycles::no_mshrs            0                       # number of cycles access was blocked (Cycle)
system.cpu.dcache.blockedCycles::no_wbuffers            0                       # number of cycles access was blocked (Cycle)
system.cpu.dcache.blockedCycles::no_targets            0                       # number of cycles access was blocked (Cycle)
system.cpu.dcache.blockedCauses::no_mshrs            0                       # number of times access was blocked (Count)
system.cpu.dcache.blockedCauses::no_wbuffers            0                       # number of times access was blocked (Count)
system.cpu.dcache.blockedCauses::no_targets            0                       # number of times access was blocked (Count)
system.cpu.dcache.avgBlocked::no_mshrs            nan                       # average number of cycles each access was blocked ((Cycle/Count))
system.cpu.dcache.avgBlocked::no_wbuffers          nan                       # average number of cycles each access was blocked ((Cycle/Count))
system.cpu.dcache.avgBlocked::no_targets          nan                       # average number of cycles each access was blocked ((Cycle/Count))
system.cpu.dcache.writebacks::writebacks      2946827                       # number of writebacks (Count)
system.cpu.dcache.writebacks::total           2946827                       # number of writebacks (Count)
system.cpu.dcache.demandMshrMisses::cpu.data      4914772                       # number of demand (read+write) MSHR misses (Count)
system.cpu.dcache.demandMshrMisses::total      4914772                       # number of demand (read+write) MSHR misses (Count)
system.cpu.dcache.overallMshrMisses::cpu.data      4914772                       # number of overall MSHR misses (Count)
system.cpu.dcache.overallMshrMisses::total      4914772                       # number of overall MSHR misses (Count)
system.cpu.dcache.demandMshrMissLatency::cpu.data 539332883000                       # number of demand (read+write) MSHR miss ticks (Tick)
system.cpu.dcache.demandMshrMissLatency::total 539332883000                       # number of demand (read+write) MSHR miss ticks (Tick)
system.cpu.dcache.overallMshrMissLatency::cpu.data 539332883000                       # number of overall MSHR miss ticks (Tick)
system.cpu.dcache.overallMshrMissLatency::total 539332883000                       # number of overall MSHR miss ticks (Tick)
system.cpu.dcache.demandMshrMissRate::cpu.data     0.015978                       # mshr miss ratio for demand accesses (Ratio)
system.cpu.dcache.demandMshrMissRate::total     0.015978                       # mshr miss ratio for demand accesses (Ratio)
system.cpu.dcache.overallMshrMissRate::cpu.data     0.015978                       # mshr miss ratio for overall accesses (Ratio)
system.cpu.dcache.overallMshrMissRate::total     0.015978                       # mshr miss ratio for overall accesses (Ratio)
system.cpu.dcache.demandAvgMshrMissLatency::cpu.data 109737.111508                       # average overall mshr miss latency ((Tick/Count))
system.cpu.dcache.demandAvgMshrMissLatency::total 109737.111508                       # average overall mshr miss latency ((Tick/Count))
system.cpu.dcache.overallAvgMshrMissLatency::cpu.data 109737.111508                       # average overall mshr miss latency ((Tick/Count))
system.cpu.dcache.overallAvgMshrMissLatency::total 109737.111508                       # average overall mshr miss latency ((Tick/Count))
system.cpu.dcache.replacements                4912730                       # number of replacements (Count)
system.cpu.dcache.LoadLockedReq.hits::cpu.data           53                       # number of LoadLockedReq hits (Count)
system.cpu.dcache.LoadLockedReq.hits::total           53                       # number of LoadLockedReq hits (Count)
system.cpu.dcache.LoadLockedReq.misses::cpu.data            5                       # number of LoadLockedReq misses (Count)
system.cpu.dcache.LoadLockedReq.misses::total            5                       # number of LoadLockedReq misses (Count)
system.cpu.dcache.LoadLockedReq.missLatency::cpu.data       557000                       # number of LoadLockedReq miss ticks (Tick)
system.cpu.dcache.LoadLockedReq.missLatency::total       557000                       # number of LoadLockedReq miss ticks (Tick)
system.cpu.dcache.LoadLockedReq.accesses::cpu.data           58                       # number of LoadLockedReq accesses(hits+misses) (Count)
system.cpu.dcache.LoadLockedReq.accesses::total           58                       # number of LoadLockedReq accesses(hits+misses) (Count)
system.cpu.dcache.LoadLockedReq.missRate::cpu.data     0.086207                       # miss rate for LoadLockedReq accesses (Ratio)
system.cpu.dcache.LoadLockedReq.missRate::total     0.086207                       # miss rate for LoadLockedReq accesses (Ratio)
system.cpu.dcache.LoadLockedReq.avgMissLatency::cpu.data       111400                       # average LoadLockedReq miss latency ((Tick/Count))
system.cpu.dcache.LoadLockedReq.avgMissLatency::total       111400                       # average LoadLockedReq miss latency ((Tick/Count))
system.cpu.dcache.LoadLockedReq.mshrMisses::cpu.data            5                       # number of LoadLockedReq MSHR misses (Count)
system.cpu.dcache.LoadLockedReq.mshrMisses::total            5                       # number of LoadLockedReq MSHR misses (Count)
system.cpu.dcache.LoadLockedReq.mshrMissLatency::cpu.data       547000                       # number of LoadLockedReq MSHR miss ticks (Tick)
system.cpu.dcache.LoadLockedReq.mshrMissLatency::total       547000                       # number of LoadLockedReq MSHR miss ticks (Tick)
system.cpu.dcache.LoadLockedReq.mshrMissRate::cpu.data     0.086207                       # mshr miss rate for LoadLockedReq accesses (Ratio)
system.cpu.dcache.LoadLockedReq.mshrMissRate::total     0.086207                       # mshr miss rate for LoadLockedReq accesses (Ratio)
system.cpu.dcache.LoadLockedReq.avgMshrMissLatency::cpu.data       109400                       # average LoadLockedReq mshr miss latency ((Tick/Count))
system.cpu.dcache.LoadLockedReq.avgMshrMissLatency::total       109400                       # average LoadLockedReq mshr miss latency ((Tick/Count))
system.cpu.dcache.ReadReq.hits::cpu.data    178272011                       # number of ReadReq hits (Count)
system.cpu.dcache.ReadReq.hits::total       178272011                       # number of ReadReq hits (Count)
system.cpu.dcache.ReadReq.misses::cpu.data      2447724                       # number of ReadReq misses (Count)
system.cpu.dcache.ReadReq.misses::total       2447724                       # number of ReadReq misses (Count)
system.cpu.dcache.ReadReq.missLatency::cpu.data 281913785000                       # number of ReadReq miss ticks (Tick)
system.cpu.dcache.ReadReq.missLatency::total 281913785000                       # number of ReadReq miss ticks (Tick)
system.cpu.dcache.ReadReq.accesses::cpu.data    180719735                       # number of ReadReq accesses(hits+misses) (Count)
system.cpu.dcache.ReadReq.accesses::total    180719735                       # number of ReadReq accesses(hits+misses) (Count)
system.cpu.dcache.ReadReq.missRate::cpu.data     0.013544                       # miss rate for ReadReq accesses (Ratio)
system.cpu.dcache.ReadReq.missRate::total     0.013544                       # miss rate for ReadReq accesses (Ratio)
system.cpu.dcache.ReadReq.avgMissLatency::cpu.data 115173.845172                       # average ReadReq miss latency ((Tick/Count))
system.cpu.dcache.ReadReq.avgMissLatency::total 115173.845172                       # average ReadReq miss latency ((Tick/Count))
system.cpu.dcache.ReadReq.mshrMisses::cpu.data      2447724                       # number of ReadReq MSHR misses (Count)
system.cpu.dcache.ReadReq.mshrMisses::total      2447724                       # number of ReadReq MSHR misses (Count)
system.cpu.dcache.ReadReq.mshrMissLatency::cpu.data 277018337000                       # number of ReadReq MSHR miss ticks (Tick)
system.cpu.dcache.ReadReq.mshrMissLatency::total 277018337000                       # number of ReadReq MSHR miss ticks (Tick)
system.cpu.dcache.ReadReq.mshrMissRate::cpu.data     0.013544                       # mshr miss rate for ReadReq accesses (Ratio)
system.cpu.dcache.ReadReq.mshrMissRate::total     0.013544                       # mshr miss rate for ReadReq accesses (Ratio)
system.cpu.dcache.ReadReq.avgMshrMissLatency::cpu.data 113173.845172                       # average ReadReq mshr miss latency ((Tick/Count))
system.cpu.dcache.ReadReq.avgMshrMissLatency::total 113173.845172                       # average ReadReq mshr miss latency ((Tick/Count))
system.cpu.dcache.StoreCondReq.hits::cpu.data           58                       # number of StoreCondReq hits (Count)
system.cpu.dcache.StoreCondReq.hits::total           58                       # number of StoreCondReq hits (Count)
system.cpu.dcache.StoreCondReq.accesses::cpu.data           58                       # number of StoreCondReq accesses(hits+misses) (Count)
system.cpu.dcache.StoreCondReq.accesses::total           58                       # number of StoreCondReq accesses(hits+misses) (Count)
system.cpu.dcache.SwapReq.hits::cpu.data          122                       # number of SwapReq hits (Count)
system.cpu.dcache.SwapReq.hits::total             122                       # number of SwapReq hits (Count)
system.cpu.dcache.SwapReq.misses::cpu.data            1                       # number of SwapReq misses (Count)
system.cpu.dcache.SwapReq.misses::total             1                       # number of SwapReq misses (Count)
system.cpu.dcache.SwapReq.missLatency::cpu.data       103000                       # number of SwapReq miss ticks (Tick)
system.cpu.dcache.SwapReq.missLatency::total       103000                       # number of SwapReq miss ticks (Tick)
system.cpu.dcache.SwapReq.accesses::cpu.data          123                       # number of SwapReq accesses(hits+misses) (Count)
system.cpu.dcache.SwapReq.accesses::total          123                       # number of SwapReq accesses(hits+misses) (Count)
system.cpu.dcache.SwapReq.missRate::cpu.data     0.008130                       # miss rate for SwapReq accesses (Ratio)
system.cpu.dcache.SwapReq.missRate::total     0.008130                       # miss rate for SwapReq accesses (Ratio)
system.cpu.dcache.SwapReq.avgMissLatency::cpu.data       103000                       # average SwapReq miss latency ((Tick/Count))
system.cpu.dcache.SwapReq.avgMissLatency::total       103000                       # average SwapReq miss latency ((Tick/Count))
system.cpu.dcache.SwapReq.mshrMisses::cpu.data            1                       # number of SwapReq MSHR misses (Count)
system.cpu.dcache.SwapReq.mshrMisses::total            1                       # number of SwapReq MSHR misses (Count)
system.cpu.dcache.SwapReq.mshrMissLatency::cpu.data       101000                       # number of SwapReq MSHR miss ticks (Tick)
system.cpu.dcache.SwapReq.mshrMissLatency::total       101000                       # number of SwapReq MSHR miss ticks (Tick)
system.cpu.dcache.SwapReq.mshrMissRate::cpu.data     0.008130                       # mshr miss rate for SwapReq accesses (Ratio)
system.cpu.dcache.SwapReq.mshrMissRate::total     0.008130                       # mshr miss rate for SwapReq accesses (Ratio)
system.cpu.dcache.SwapReq.avgMshrMissLatency::cpu.data       101000                       # average SwapReq mshr miss latency ((Tick/Count))
system.cpu.dcache.SwapReq.avgMshrMissLatency::total       101000                       # average SwapReq mshr miss latency ((Tick/Count))
system.cpu.dcache.WriteReq.hits::cpu.data    124417816                       # number of WriteReq hits (Count)
system.cpu.dcache.WriteReq.hits::total      124417816                       # number of WriteReq hits (Count)
system.cpu.dcache.WriteReq.misses::cpu.data      2467048                       # number of WriteReq misses (Count)
system.cpu.dcache.WriteReq.misses::total      2467048                       # number of WriteReq misses (Count)
system.cpu.dcache.WriteReq.missLatency::cpu.data 267248642000                       # number of WriteReq miss ticks (Tick)
system.cpu.dcache.WriteReq.missLatency::total 267248642000                       # number of WriteReq miss ticks (Tick)
system.cpu.dcache.WriteReq.accesses::cpu.data    126884864                       # number of WriteReq accesses(hits+misses) (Count)
system.cpu.dcache.WriteReq.accesses::total    126884864                       # number of WriteReq accesses(hits+misses) (Count)
system.cpu.dcache.WriteReq.missRate::cpu.data     0.019443                       # miss rate for WriteReq accesses (Ratio)
system.cpu.dcache.WriteReq.missRate::total     0.019443                       # miss rate for WriteReq accesses (Ratio)
system.cpu.dcache.WriteReq.avgMissLatency::cpu.data 108327.297239                       # average WriteReq miss latency ((Tick/Count))
system.cpu.dcache.WriteReq.avgMissLatency::total 108327.297239                       # average WriteReq miss latency ((Tick/Count))
system.cpu.dcache.WriteReq.mshrMisses::cpu.data      2467048                       # number of WriteReq MSHR misses (Count)
system.cpu.dcache.WriteReq.mshrMisses::total      2467048                       # number of WriteReq MSHR misses (Count)
system.cpu.dcache.WriteReq.mshrMissLatency::cpu.data 262314546000                       # number of WriteReq MSHR miss ticks (Tick)
system.cpu.dcache.WriteReq.mshrMissLatency::total 262314546000                       # number of WriteReq MSHR miss ticks (Tick)
system.cpu.dcache.WriteReq.mshrMissRate::cpu.data     0.019443                       # mshr miss rate for WriteReq accesses (Ratio)
system.cpu.dcache.WriteReq.mshrMissRate::total     0.019443                       # mshr miss rate for WriteReq accesses (Ratio)
system.cpu.dcache.WriteReq.avgMshrMissLatency::cpu.data 106327.297239                       # average WriteReq mshr miss latency ((Tick/Count))
system.cpu.dcache.WriteReq.avgMshrMissLatency::total 106327.297239                       # average WriteReq mshr miss latency ((Tick/Count))
system.cpu.dcache.power_state.pwrStateResidencyTicks::UNDEFINED 4323246257000                       # Cumulative time (in ticks) in various power states (Tick)
system.cpu.dcache.tags.tagsInUse          2045.021651                       # Average ticks per tags in use ((Tick/Count))
system.cpu.dcache.tags.totalRefs            307553101                       # Total number of references to valid blocks. (Count)
system.cpu.dcache.tags.sampledRefs            4912730                       # Sample count of references to valid blocks. (Count)
system.cpu.dcache.tags.avgRefs              62.603298                       # Average number of references to valid blocks. ((Count/Count))
system.cpu.dcache.tags.warmupTick              363000                       # The tick when the warmup percentage was hit. (Tick)
system.cpu.dcache.tags.occupancies::cpu.data  2045.021651                       # Average occupied blocks per tick, per requestor ((Count/Tick))
system.cpu.dcache.tags.avgOccs::cpu.data     0.998546                       # Average percentage of cache occupancy ((Ratio/Tick))
system.cpu.dcache.tags.avgOccs::total        0.998546                       # Average percentage of cache occupancy ((Ratio/Tick))
system.cpu.dcache.tags.occupanciesTaskId::1024         2048                       # Occupied blocks per task id (Count)
system.cpu.dcache.tags.ageTaskId_1024::0           25                       # Occupied blocks per task id, per block age (Count)
system.cpu.dcache.tags.ageTaskId_1024::1          131                       # Occupied blocks per task id, per block age (Count)
system.cpu.dcache.tags.ageTaskId_1024::2         1752                       # Occupied blocks per task id, per block age (Count)
system.cpu.dcache.tags.ageTaskId_1024::3          140                       # Occupied blocks per task id, per block age (Count)
system.cpu.dcache.tags.ratioOccsTaskId::1024            1                       # Ratio of occupied blocks and all blocks, per task id (Ratio)
system.cpu.dcache.tags.tagAccesses         1235334130                       # Number of tag accesses (Count)
system.cpu.dcache.tags.dataAccesses        1235334130                       # Number of data accesses (Count)
system.cpu.dcache.tags.power_state.pwrStateResidencyTicks::UNDEFINED 4323246257000                       # Cumulative time (in ticks) in various power states (Tick)
system.cpu.exec_context.thread_0.numMatAluAccesses            0                       # Number of matrix alu accesses (Count)
system.cpu.exec_context.thread_0.numMatInsts            0                       # Number of matrix instructions (Count)
system.cpu.exec_context.thread_0.numIdleCycles     0.001000                       # Number of idle cycles (Cycle)
system.cpu.exec_context.thread_0.numBusyCycles 4323246256.999001                       # Number of busy cycles (Cycle)
system.cpu.exec_context.thread_0.notIdleFraction     1.000000                       # Percentage of non-idle cycles (Ratio)
system.cpu.exec_context.thread_0.idleFraction     0.000000                       # Percentage of idle cycles (Ratio)
system.cpu.executeStats0.numInsts          1162542625                       # Number of executed instructions (Count)
system.cpu.executeStats0.numNop                     0                       # Number of nop insts executed (Count)
system.cpu.executeStats0.numBranches        240706924                       # Number of branches executed (Count)
system.cpu.executeStats0.numLoadInsts       180719793                       # Number of load instructions executed (Count)
system.cpu.executeStats0.numStoreInsts      126885045                       # Number of stores executed (Count)
system.cpu.executeStats0.instRate            0.268905                       # Inst execution rate ((Count/Cycle))
system.cpu.executeStats0.numFpAluAccesses           12                       # Number of float alu accesses (Count)
system.cpu.executeStats0.numFpRegReads             12                       # Number of times the floating registers were read (Count)
system.cpu.executeStats0.numFpRegWrites             0                       # Number of times the floating registers were written (Count)
system.cpu.executeStats0.numIntAluAccesses   1152386359                       # Number of integer alu accesses (Count)
system.cpu.executeStats0.numIntRegReads    1640905038                       # Number of times the integer registers were read (Count)
system.cpu.executeStats0.numIntRegWrites    797572982                       # Number of times the integer registers were written (Count)
system.cpu.executeStats0.numMemRefs         307604838                       # Number of memory refs (Count)
system.cpu.executeStats0.numMiscRegReads          112                       # Number of times the Misc registers were read (Count)
system.cpu.executeStats0.numVecAluAccesses            0                       # Number of vector alu accesses (Count)
system.cpu.executeStats0.numDiscardedOps            0                       # Number of ops (including micro ops) which were discarded before commit (Count)
system.cpu.fetchStats0.numInsts            1162553433                       # Number of instructions fetched (thread level) (Count)
system.cpu.fetchStats0.numOps              1162553545                       # Number of ops (including micro ops) fetched (thread level) (Count)
system.cpu.fetchStats0.fetchRate             0.268908                       # Number of inst fetches per cycle ((Count/Cycle))
system.cpu.fetchStats0.numBranches          240706924                       # Number of branches fetched (Count)
system.cpu.fetchStats0.branchRate            0.055677                       # Number of branch fetches per cycle (Ratio)
system.cpu.fetchStats0.numFetchSuspends             0                       # Number of times Execute suspended instruction fetching (Count)
system.cpu.icache.demandHits::cpu.inst     1584326384                       # number of demand (read+write) hits (Count)
system.cpu.icache.demandHits::total        1584326384                       # number of demand (read+write) hits (Count)
system.cpu.icache.overallHits::cpu.inst    1584326384                       # number of overall hits (Count)
system.cpu.icache.overallHits::total       1584326384                       # number of overall hits (Count)
system.cpu.icache.demandMisses::cpu.inst          442                       # number of demand (read+write) misses (Count)
system.cpu.icache.demandMisses::total             442                       # number of demand (read+write) misses (Count)
system.cpu.icache.overallMisses::cpu.inst          442                       # number of overall misses (Count)
system.cpu.icache.overallMisses::total            442                       # number of overall misses (Count)
system.cpu.icache.demandMissLatency::cpu.inst     49182000                       # number of demand (read+write) miss ticks (Tick)
system.cpu.icache.demandMissLatency::total     49182000                       # number of demand (read+write) miss ticks (Tick)
system.cpu.icache.overallMissLatency::cpu.inst     49182000                       # number of overall miss ticks (Tick)
system.cpu.icache.overallMissLatency::total     49182000                       # number of overall miss ticks (Tick)
system.cpu.icache.demandAccesses::cpu.inst   1584326826                       # number of demand (read+write) accesses (Count)
system.cpu.icache.demandAccesses::total    1584326826                       # number of demand (read+write) accesses (Count)
system.cpu.icache.overallAccesses::cpu.inst   1584326826                       # number of overall (read+write) accesses (Count)
system.cpu.icache.overallAccesses::total   1584326826                       # number of overall (read+write) accesses (Count)
system.cpu.icache.demandMissRate::cpu.inst     0.000000                       # miss rate for demand accesses (Ratio)
system.cpu.icache.demandMissRate::total      0.000000                       # miss rate for demand accesses (Ratio)
system.cpu.icache.overallMissRate::cpu.inst     0.000000                       # miss rate for overall accesses (Ratio)
system.cpu.icache.overallMissRate::total     0.000000                       # miss rate for overall accesses (Ratio)
system.cpu.icache.demandAvgMissLatency::cpu.inst 111271.493213                       # average overall miss latency in ticks ((Tick/Count))
system.cpu.icache.demandAvgMissLatency::total 111271.493213                       # average overall miss latency in ticks ((Tick/Count))
system.cpu.icache.overallAvgMissLatency::cpu.inst 111271.493213                       # average overall miss latency ((Tick/Count))
system.cpu.icache.overallAvgMissLatency::total 111271.493213                       # average overall miss latency ((Tick/Count))
system.cpu.icache.blockedCycles::no_mshrs            0                       # number of cycles access was blocked (Cycle)
system.cpu.icache.blockedCycles::no_wbuffers            0                       # number of cycles access was blocked (Cycle)
system.cpu.icache.blockedCycles::no_targets            0                       # number of cycles access was blocked (Cycle)
system.cpu.icache.blockedCauses::no_mshrs            0                       # number of times access was blocked (Count)
system.cpu.icache.blockedCauses::no_wbuffers            0                       # number of times access was blocked (Count)
system.cpu.icache.blockedCauses::no_targets            0                       # number of times access was blocked (Count)
system.cpu.icache.avgBlocked::no_mshrs            nan                       # average number of cycles each access was blocked ((Cycle/Count))
system.cpu.icache.avgBlocked::no_wbuffers          nan                       # average number of cycles each access was blocked ((Cycle/Count))
system.cpu.icache.avgBlocked::no_targets          nan                       # average number of cycles each access was blocked ((Cycle/Count))
system.cpu.icache.demandMshrMisses::cpu.inst          442                       # number of demand (read+write) MSHR misses (Count)
system.cpu.icache.demandMshrMisses::total          442                       # number of demand (read+write) MSHR misses (Count)
system.cpu.icache.overallMshrMisses::cpu.inst          442                       # number of overall MSHR misses (Count)
system.cpu.icache.overallMshrMisses::total          442                       # number of overall MSHR misses (Count)
system.cpu.icache.demandMshrMissLatency::cpu.inst     48298000                       # number of demand (read+write) MSHR miss ticks (Tick)
system.cpu.icache.demandMshrMissLatency::total     48298000                       # number of demand (read+write) MSHR miss ticks (Tick)
system.cpu.icache.overallMshrMissLatency::cpu.inst     48298000                       # number of overall MSHR miss ticks (Tick)
system.cpu.icache.overallMshrMissLatency::total     48298000                       # number of overall MSHR miss ticks (Tick)
system.cpu.icache.demandMshrMissRate::cpu.inst     0.000000                       # mshr miss ratio for demand accesses (Ratio)
system.cpu.icache.demandMshrMissRate::total     0.000000                       # mshr miss ratio for demand accesses (Ratio)
system.cpu.icache.overallMshrMissRate::cpu.inst     0.000000                       # mshr miss ratio for overall accesses (Ratio)
system.cpu.icache.overallMshrMissRate::total     0.000000                       # mshr miss ratio for overall accesses (Ratio)
system.cpu.icache.demandAvgMshrMissLatency::cpu.inst 109271.493213                       # average overall mshr miss latency ((Tick/Count))
system.cpu.icache.demandAvgMshrMissLatency::total 109271.493213                       # average overall mshr miss latency ((Tick/Count))
system.cpu.icache.overallAvgMshrMissLatency::cpu.inst 109271.493213                       # average overall mshr miss latency ((Tick/Count))
system.cpu.icache.overallAvgMshrMissLatency::total 109271.493213                       # average overall mshr miss latency ((Tick/Count))
system.cpu.icache.replacements                     38                       # number of replacements (Count)
system.cpu.icache.ReadReq.hits::cpu.inst   1584326384                       # number of ReadReq hits (Count)
system.cpu.icache.ReadReq.hits::total      1584326384                       # number of ReadReq hits (Count)
system.cpu.icache.ReadReq.misses::cpu.inst          442                       # number of ReadReq misses (Count)
system.cpu.icache.ReadReq.misses::total           442                       # number of ReadReq misses (Count)
system.cpu.icache.ReadReq.missLatency::cpu.inst     49182000                       # number of ReadReq miss ticks (Tick)
system.cpu.icache.ReadReq.missLatency::total     49182000                       # number of ReadReq miss ticks (Tick)
system.cpu.icache.ReadReq.accesses::cpu.inst   1584326826                       # number of ReadReq accesses(hits+misses) (Count)
system.cpu.icache.ReadReq.accesses::total   1584326826                       # number of ReadReq accesses(hits+misses) (Count)
system.cpu.icache.ReadReq.missRate::cpu.inst     0.000000                       # miss rate for ReadReq accesses (Ratio)
system.cpu.icache.ReadReq.missRate::total     0.000000                       # miss rate for ReadReq accesses (Ratio)
system.cpu.icache.ReadReq.avgMissLatency::cpu.inst 111271.493213                       # average ReadReq miss latency ((Tick/Count))
system.cpu.icache.ReadReq.avgMissLatency::total 111271.493213                       # average ReadReq miss latency ((Tick/Count))
system.cpu.icache.ReadReq.mshrMisses::cpu.inst          442                       # number of ReadReq MSHR misses (Count)
system.cpu.icache.ReadReq.mshrMisses::total          442                       # number of ReadReq MSHR misses (Count)
system.cpu.icache.ReadReq.mshrMissLatency::cpu.inst     48298000                       # number of ReadReq MSHR miss ticks (Tick)
system.cpu.icache.ReadReq.mshrMissLatency::total     48298000                       # number of ReadReq MSHR miss ticks (Tick)
system.cpu.icache.ReadReq.mshrMissRate::cpu.inst     0.000000                       # mshr miss rate for ReadReq accesses (Ratio)
system.cpu.icache.ReadReq.mshrMissRate::total     0.000000                       # mshr miss rate for ReadReq accesses (Ratio)
system.cpu.icache.ReadReq.avgMshrMissLatency::cpu.inst 109271.493213                       # average ReadReq mshr miss latency ((Tick/Count))
system.cpu.icache.ReadReq.avgMshrMissLatency::total 109271.493213                       # average ReadReq mshr miss latency ((Tick/Count))
system.cpu.icache.power_state.pwrStateResidencyTicks::UNDEFINED 4323246257000                       # Cumulative time (in ticks) in various power states (Tick)
system.cpu.icache.tags.tagsInUse           316.732343                       # Average ticks per tags in use ((Tick/Count))
system.cpu.icache.tags.totalRefs                 1996                       # Total number of references to valid blocks. (Count)
system.cpu.icache.tags.sampledRefs                 38                       # Sample count of references to valid blocks. (Count)
system.cpu.icache.tags.avgRefs              52.526316                       # Average number of references to valid blocks. ((Count/Count))
system.cpu.icache.tags.warmupTick              115000                       # The tick when the warmup percentage was hit. (Tick)
system.cpu.icache.tags.occupancies::cpu.inst   316.732343                       # Average occupied blocks per tick, per requestor ((Count/Tick))
system.cpu.icache.tags.avgOccs::cpu.inst     0.618618                       # Average percentage of cache occupancy ((Ratio/Tick))
system.cpu.icache.tags.avgOccs::total        0.618618                       # Average percentage of cache occupancy ((Ratio/Tick))
system.cpu.icache.tags.occupanciesTaskId::1024          404                       # Occupied blocks per task id (Count)
system.cpu.icache.tags.ageTaskId_1024::0           39                       # Occupied blocks per task id, per block age (Count)
system.cpu.icache.tags.ageTaskId_1024::1           12                       # Occupied blocks per task id, per block age (Count)
system.cpu.icache.tags.ageTaskId_1024::4          353                       # Occupied blocks per task id, per block age (Count)
system.cpu.icache.tags.ratioOccsTaskId::1024     0.789062                       # Ratio of occupied blocks and all blocks, per task id (Ratio)
system.cpu.icache.tags.tagAccesses         6337307746                       # Number of tag accesses (Count)
system.cpu.icache.tags.dataAccesses        6337307746                       # Number of data accesses (Count)
system.cpu.icache.tags.power_state.pwrStateResidencyTicks::UNDEFINED 4323246257000                       # Cumulative time (in ticks) in various power states (Tick)
system.cpu.mmu.dtb.readHits                         0                       # read hits (Count)
system.cpu.mmu.dtb.readMisses                       0                       # read misses (Count)
system.cpu.mmu.dtb.readAccesses                     0                       # read accesses (Count)
system.cpu.mmu.dtb.writeHits                        0                       # write hits (Count)
system.cpu.mmu.dtb.writeMisses                      0                       # write misses (Count)
system.cpu.mmu.dtb.writeAccesses                    0                       # write accesses (Count)
system.cpu.mmu.dtb.hits                             0                       # Total TLB (read and write) hits (Count)
system.cpu.mmu.dtb.misses                           0                       # Total TLB (read and write) misses (Count)
system.cpu.mmu.dtb.accesses                         0                       # Total TLB (read and write) accesses (Count)
system.cpu.mmu.dtb.walker.num_4kb_walks             0                       # Completed page walks with 4KB pages (Count)
system.cpu.mmu.dtb.walker.num_64kb_walks            0                       # Completed page walks with 64KB pages (Count)
system.cpu.mmu.dtb.walker.num_2mb_walks             0                       # Completed page walks with 2MB pages (Count)
system.cpu.mmu.dtb.walker.power_state.pwrStateResidencyTicks::UNDEFINED 4323246257000                       # Cumulative time (in ticks) in various power states (Tick)
system.cpu.mmu.itb.readHits                         0                       # read hits (Count)
system.cpu.mmu.itb.readMisses                       0                       # read misses (Count)
system.cpu.mmu.itb.readAccesses                     0                       # read accesses (Count)
system.cpu.mmu.itb.writeHits                        0                       # write hits (Count)
system.cpu.mmu.itb.writeMisses                      0                       # write misses (Count)
system.cpu.mmu.itb.writeAccesses                    0                       # write accesses (Count)
system.cpu.mmu.itb.hits                             0                       # Total TLB (read and write) hits (Count)
system.cpu.mmu.itb.misses                           0                       # Total TLB (read and write) misses (Count)
system.cpu.mmu.itb.accesses                         0                       # Total TLB (read and write) accesses (Count)
system.cpu.mmu.itb.walker.num_4kb_walks             0                       # Completed page walks with 4KB pages (Count)
system.cpu.mmu.itb.walker.num_64kb_walks            0                       # Completed page walks with 64KB pages (Count)
system.cpu.mmu.itb.walker.num_2mb_walks             0                       # Completed page walks with 2MB pages (Count)
system.cpu.mmu.itb.walker.power_state.pwrStateResidencyTicks::UNDEFINED 4323246257000                       # Cumulative time (in ticks) in various power states (Tick)
system.cpu.power_state.pwrStateResidencyTicks::ON 4323246257000                       # Cumulative time (in ticks) in various power states (Tick)
system.cpu.thread_0.numInsts               1162542625                       # Number of Instructions committed (Count)
system.cpu.thread_0.numOps                 1162542737                       # Number of Ops committed (Count)
system.cpu.thread_0.numMemRefs              307604838                       # Number of Memory References (Count)
system.cpu.workload.numSyscalls                    44                       # Number of system calls (Count)
system.l2_xbar.transDist::ReadResp            2448171                       # Transaction distribution (Count)
system.l2_xbar.transDist::WritebackDirty      5250468                       # Transaction distribution (Count)
system.l2_xbar.transDist::CleanEvict          4136770                       # Transaction distribution (Count)
system.l2_xbar.transDist::ReadExReq           2467049                       # Transaction distribution (Count)
system.l2_xbar.transDist::ReadExResp          2467049                       # Transaction distribution (Count)
system.l2_xbar.transDist::ReadSharedReq       2448171                       # Transaction distribution (Count)
system.l2_xbar.pktCount_system.cpu.icache.mem_side_port::system.l2cache.cpu_side_port          922                       # Packet count per connected requestor and responder (Count)
system.l2_xbar.pktCount_system.cpu.dcache.mem_side_port::system.l2cache.cpu_side_port     14742286                       # Packet count per connected requestor and responder (Count)
system.l2_xbar.pktCount::total               14743208                       # Packet count per connected requestor and responder (Count)
system.l2_xbar.pktSize_system.cpu.icache.mem_side_port::system.l2cache.cpu_side_port        28288                       # Cumulative packet size per connected requestor and responder (Byte)
system.l2_xbar.pktSize_system.cpu.dcache.mem_side_port::system.l2cache.cpu_side_port    503142720                       # Cumulative packet size per connected requestor and responder (Byte)
system.l2_xbar.pktSize::total               503171008                       # Cumulative packet size per connected requestor and responder (Byte)
system.l2_xbar.snoops                         4474470                       # Total snoops (Count)
system.l2_xbar.snoopTraffic                 147433024                       # Total snoop traffic (Byte)
system.l2_xbar.snoopFanout::samples           9389690                       # Request fanout histogram (Count)
system.l2_xbar.snoopFanout::mean             0.023536                       # Request fanout histogram (Count)
system.l2_xbar.snoopFanout::stdev            0.151597                       # Request fanout histogram (Count)
system.l2_xbar.snoopFanout::underflows              0      0.00%      0.00% # Request fanout histogram (Count)
system.l2_xbar.snoopFanout::0                 9168698     97.65%     97.65% # Request fanout histogram (Count)
system.l2_xbar.snoopFanout::1                  220992      2.35%    100.00% # Request fanout histogram (Count)
system.l2_xbar.snoopFanout::2                       0      0.00%    100.00% # Request fanout histogram (Count)
system.l2_xbar.snoopFanout::overflows               0      0.00%    100.00% # Request fanout histogram (Count)
system.l2_xbar.snoopFanout::min_value               0                       # Request fanout histogram (Count)
system.l2_xbar.snoopFanout::max_value               1                       # Request fanout histogram (Count)
system.l2_xbar.snoopFanout::total             9389690                       # Request fanout histogram (Count)
system.l2_xbar.power_state.pwrStateResidencyTicks::UNDEFINED 4323246257000                       # Cumulative time (in ticks) in various power states (Tick)
system.l2_xbar.reqLayer0.occupancy        21615296000                       # Layer occupancy (ticks) (Tick)
system.l2_xbar.reqLayer0.utilization              0.0                       # Layer utilization (Ratio)
system.l2_xbar.respLayer0.occupancy           2210000                       # Layer occupancy (ticks) (Tick)
system.l2_xbar.respLayer0.utilization             0.0                       # Layer utilization (Ratio)
system.l2_xbar.respLayer1.occupancy       24573890000                       # Layer occupancy (ticks) (Tick)
system.l2_xbar.respLayer1.utilization             0.0                       # Layer utilization (Ratio)
system.l2_xbar.snoop_filter.totRequests       9827988                       # Total number of requests made to the snoop filter. (Count)
system.l2_xbar.snoop_filter.hitSingleRequests      4912768                       # Number of requests hitting in the snoop filter with a single holder of the requested data. (Count)
system.l2_xbar.snoop_filter.hitMultiRequests            0                       # Number of requests hitting in the snoop filter with multiple (>1) holders of the requested data. (Count)
system.l2_xbar.snoop_filter.totSnoops          220992                       # Total number of snoops made to the snoop filter. (Count)
system.l2_xbar.snoop_filter.hitSingleSnoops       220992                       # Number of snoops hitting in the snoop filter with a single holder of the requested data. (Count)
system.l2_xbar.snoop_filter.hitMultiSnoops            0                       # Number of snoops hitting in the snoop filter with multiple (>1) holders of the requested data. (Count)
system.l2cache.demandHits::cpu.data            645451                       # number of demand (read+write) hits (Count)
system.l2cache.demandHits::total               645451                       # number of demand (read+write) hits (Count)
system.l2cache.overallHits::cpu.data           645451                       # number of overall hits (Count)
system.l2cache.overallHits::total              645451                       # number of overall hits (Count)
system.l2cache.demandMisses::cpu.inst             442                       # number of demand (read+write) misses (Count)
system.l2cache.demandMisses::cpu.data         4269327                       # number of demand (read+write) misses (Count)
system.l2cache.demandMisses::total            4269769                       # number of demand (read+write) misses (Count)
system.l2cache.overallMisses::cpu.inst            442                       # number of overall misses (Count)
system.l2cache.overallMisses::cpu.data        4269327                       # number of overall misses (Count)
system.l2cache.overallMisses::total           4269769                       # number of overall misses (Count)
system.l2cache.demandMissLatency::cpu.inst     46529000                       # number of demand (read+write) miss ticks (Tick)
system.l2cache.demandMissLatency::cpu.data 501029647000                       # number of demand (read+write) miss ticks (Tick)
system.l2cache.demandMissLatency::total  501076176000                       # number of demand (read+write) miss ticks (Tick)
system.l2cache.overallMissLatency::cpu.inst     46529000                       # number of overall miss ticks (Tick)
system.l2cache.overallMissLatency::cpu.data 501029647000                       # number of overall miss ticks (Tick)
system.l2cache.overallMissLatency::total 501076176000                       # number of overall miss ticks (Tick)
system.l2cache.demandAccesses::cpu.inst           442                       # number of demand (read+write) accesses (Count)
system.l2cache.demandAccesses::cpu.data       4914778                       # number of demand (read+write) accesses (Count)
system.l2cache.demandAccesses::total          4915220                       # number of demand (read+write) accesses (Count)
system.l2cache.overallAccesses::cpu.inst          442                       # number of overall (read+write) accesses (Count)
system.l2cache.overallAccesses::cpu.data      4914778                       # number of overall (read+write) accesses (Count)
system.l2cache.overallAccesses::total         4915220                       # number of overall (read+write) accesses (Count)
system.l2cache.demandMissRate::cpu.inst             1                       # miss rate for demand accesses (Ratio)
system.l2cache.demandMissRate::cpu.data      0.868671                       # miss rate for demand accesses (Ratio)
system.l2cache.demandMissRate::total         0.868683                       # miss rate for demand accesses (Ratio)
system.l2cache.overallMissRate::cpu.inst            1                       # miss rate for overall accesses (Ratio)
system.l2cache.overallMissRate::cpu.data     0.868671                       # miss rate for overall accesses (Ratio)
system.l2cache.overallMissRate::total        0.868683                       # miss rate for overall accesses (Ratio)
system.l2cache.demandAvgMissLatency::cpu.inst 105269.230769                       # average overall miss latency in ticks ((Tick/Count))
system.l2cache.demandAvgMissLatency::cpu.data 117355.650434                       # average overall miss latency in ticks ((Tick/Count))
system.l2cache.demandAvgMissLatency::total 117354.399266                       # average overall miss latency in ticks ((Tick/Count))
system.l2cache.overallAvgMissLatency::cpu.inst 105269.230769                       # average overall miss latency ((Tick/Count))
system.l2cache.overallAvgMissLatency::cpu.data 117355.650434                       # average overall miss latency ((Tick/Count))
system.l2cache.overallAvgMissLatency::total 117354.399266                       # average overall miss latency ((Tick/Count))
system.l2cache.blockedCycles::no_mshrs              0                       # number of cycles access was blocked (Cycle)
system.l2cache.blockedCycles::no_wbuffers            0                       # number of cycles access was blocked (Cycle)
system.l2cache.blockedCycles::no_targets            0                       # number of cycles access was blocked (Cycle)
system.l2cache.blockedCauses::no_mshrs              0                       # number of times access was blocked (Count)
system.l2cache.blockedCauses::no_wbuffers            0                       # number of times access was blocked (Count)
system.l2cache.blockedCauses::no_targets            0                       # number of times access was blocked (Count)
system.l2cache.avgBlocked::no_mshrs               nan                       # average number of cycles each access was blocked ((Cycle/Count))
system.l2cache.avgBlocked::no_wbuffers            nan                       # average number of cycles each access was blocked ((Cycle/Count))
system.l2cache.avgBlocked::no_targets             nan                       # average number of cycles each access was blocked ((Cycle/Count))
system.l2cache.writebacks::writebacks         2303641                       # number of writebacks (Count)
system.l2cache.writebacks::total              2303641                       # number of writebacks (Count)
system.l2cache.demandMshrMisses::cpu.inst          442                       # number of demand (read+write) MSHR misses (Count)
system.l2cache.demandMshrMisses::cpu.data      4269327                       # number of demand (read+write) MSHR misses (Count)
system.l2cache.demandMshrMisses::total        4269769                       # number of demand (read+write) MSHR misses (Count)
system.l2cache.overallMshrMisses::cpu.inst          442                       # number of overall MSHR misses (Count)
system.l2cache.overallMshrMisses::cpu.data      4269327                       # number of overall MSHR misses (Count)
system.l2cache.overallMshrMisses::total       4269769                       # number of overall MSHR misses (Count)
system.l2cache.demandMshrMissLatency::cpu.inst     37689000                       # number of demand (read+write) MSHR miss ticks (Tick)
system.l2cache.demandMshrMissLatency::cpu.data 415643107000                       # number of demand (read+write) MSHR miss ticks (Tick)
system.l2cache.demandMshrMissLatency::total 415680796000                       # number of demand (read+write) MSHR miss ticks (Tick)
system.l2cache.overallMshrMissLatency::cpu.inst     37689000                       # number of overall MSHR miss ticks (Tick)
system.l2cache.overallMshrMissLatency::cpu.data 415643107000                       # number of overall MSHR miss ticks (Tick)
system.l2cache.overallMshrMissLatency::total 415680796000                       # number of overall MSHR miss ticks (Tick)
system.l2cache.demandMshrMissRate::cpu.inst            1                       # mshr miss ratio for demand accesses (Ratio)
system.l2cache.demandMshrMissRate::cpu.data     0.868671                       # mshr miss ratio for demand accesses (Ratio)
system.l2cache.demandMshrMissRate::total     0.868683                       # mshr miss ratio for demand accesses (Ratio)
system.l2cache.overallMshrMissRate::cpu.inst            1                       # mshr miss ratio for overall accesses (Ratio)
system.l2cache.overallMshrMissRate::cpu.data     0.868671                       # mshr miss ratio for overall accesses (Ratio)
system.l2cache.overallMshrMissRate::total     0.868683                       # mshr miss ratio for overall accesses (Ratio)
[...]
system.mem_ctrl.dram.bytesInstRead::total        28288                       # Number of instructions bytes read from this memory (Byte)
system.mem_ctrl.dram.bytesWritten::writebacks    147433024                       # Number of bytes written to this memory (Byte)
system.mem_ctrl.dram.bytesWritten::total    147433024                       # Number of bytes written to this memory (Byte)
system.mem_ctrl.dram.numReads::cpu.inst           442                       # Number of read requests responded to by this memory (Count)
system.mem_ctrl.dram.numReads::cpu.data       4269327                       # Number of read requests responded to by this memory (Count)
system.mem_ctrl.dram.numReads::total          4269769                       # Number of read requests responded to by this memory (Count)
system.mem_ctrl.dram.numWrites::writebacks      2303641                       # Number of write requests responded to by this memory (Count)
system.mem_ctrl.dram.numWrites::total         2303641                       # Number of write requests responded to by this memory (Count)
system.mem_ctrl.dram.bwRead::cpu.inst            6543                       # Total read bandwidth from this memory ((Byte/Second))
system.mem_ctrl.dram.bwRead::cpu.data        63201796                       # Total read bandwidth from this memory ((Byte/Second))
system.mem_ctrl.dram.bwRead::total           63208339                       # Total read bandwidth from this memory ((Byte/Second))
system.mem_ctrl.dram.bwInstRead::cpu.inst         6543                       # Instruction read bandwidth from this memory ((Byte/Second))
system.mem_ctrl.dram.bwInstRead::total           6543                       # Instruction read bandwidth from this memory ((Byte/Second))
system.mem_ctrl.dram.bwWrite::writebacks     34102389                       # Write bandwidth from this memory ((Byte/Second))
system.mem_ctrl.dram.bwWrite::total          34102389                       # Write bandwidth from this memory ((Byte/Second))
system.mem_ctrl.dram.bwTotal::writebacks     34102389                       # Total bandwidth to/from this memory ((Byte/Second))
system.mem_ctrl.dram.bwTotal::cpu.inst           6543                       # Total bandwidth to/from this memory ((Byte/Second))
system.mem_ctrl.dram.bwTotal::cpu.data       63201796                       # Total bandwidth to/from this memory ((Byte/Second))
system.mem_ctrl.dram.bwTotal::total          97310728                       # Total bandwidth to/from this memory ((Byte/Second))
system.mem_ctrl.dram.readBursts               4259992                       # Number of DRAM read bursts (Count)
system.mem_ctrl.dram.writeBursts              2303578                       # Number of DRAM write bursts (Count)
system.mem_ctrl.dram.perBankRdBursts::0        266585                       # Per bank write bursts (Count)
system.mem_ctrl.dram.perBankRdBursts::1        267343                       # Per bank write bursts (Count)
system.mem_ctrl.dram.perBankRdBursts::2        266668                       # Per bank write bursts (Count)
system.mem_ctrl.dram.perBankRdBursts::3        266815                       # Per bank write bursts (Count)
system.mem_ctrl.dram.perBankRdBursts::4        266725                       # Per bank write bursts (Count)
system.mem_ctrl.dram.perBankRdBursts::5        266589                       # Per bank write bursts (Count)
system.mem_ctrl.dram.perBankRdBursts::6        266676                       # Per bank write bursts (Count)
system.mem_ctrl.dram.perBankRdBursts::7        268040                       # Per bank write bursts (Count)
system.mem_ctrl.dram.perBankRdBursts::8        266338                       # Per bank write bursts (Count)
system.mem_ctrl.dram.perBankRdBursts::9        270567                       # Per bank write bursts (Count)
system.mem_ctrl.dram.perBankRdBursts::10       261989                       # Per bank write bursts (Count)
system.mem_ctrl.dram.perBankRdBursts::11       262149                       # Per bank write bursts (Count)
system.mem_ctrl.dram.perBankRdBursts::12       263596                       # Per bank write bursts (Count)
system.mem_ctrl.dram.perBankRdBursts::13       266403                       # Per bank write bursts (Count)
system.mem_ctrl.dram.perBankRdBursts::14       266373                       # Per bank write bursts (Count)
system.mem_ctrl.dram.perBankRdBursts::15       267136                       # Per bank write bursts (Count)
system.mem_ctrl.dram.perBankWrBursts::0        143468                       # Per bank write bursts (Count)
system.mem_ctrl.dram.perBankWrBursts::1        144625                       # Per bank write bursts (Count)
system.mem_ctrl.dram.perBankWrBursts::2        143594                       # Per bank write bursts (Count)
system.mem_ctrl.dram.perBankWrBursts::3        143631                       # Per bank write bursts (Count)
system.mem_ctrl.dram.perBankWrBursts::4        143646                       # Per bank write bursts (Count)
system.mem_ctrl.dram.perBankWrBursts::5        143552                       # Per bank write bursts (Count)
system.mem_ctrl.dram.perBankWrBursts::6        143676                       # Per bank write bursts (Count)
system.mem_ctrl.dram.perBankWrBursts::7        144812                       # Per bank write bursts (Count)
system.mem_ctrl.dram.perBankWrBursts::8        143216                       # Per bank write bursts (Count)
system.mem_ctrl.dram.perBankWrBursts::9        145543                       # Per bank write bursts (Count)
system.mem_ctrl.dram.perBankWrBursts::10       142853                       # Per bank write bursts (Count)
system.mem_ctrl.dram.perBankWrBursts::11       145589                       # Per bank write bursts (Count)
system.mem_ctrl.dram.perBankWrBursts::12       143258                       # Per bank write bursts (Count)
system.mem_ctrl.dram.perBankWrBursts::13       143277                       # Per bank write bursts (Count)
system.mem_ctrl.dram.perBankWrBursts::14       143445                       # Per bank write bursts (Count)
system.mem_ctrl.dram.perBankWrBursts::15       145393                       # Per bank write bursts (Count)
system.mem_ctrl.dram.totQLat              86062898000                       # Total ticks spent queuing (Tick)
system.mem_ctrl.dram.totBusLat            21299960000                       # Total ticks spent in databus transfers (Tick)
system.mem_ctrl.dram.totMemAccLat        165937748000                       # Total ticks spent from burst creation until serviced by the DRAM (Tick)
system.mem_ctrl.dram.avgQLat                 20202.60                       # Average queueing delay per DRAM burst ((Tick/Count))
system.mem_ctrl.dram.avgBusLat                5000.00                       # Average bus latency per DRAM burst ((Tick/Count))
system.mem_ctrl.dram.avgMemAccLat            38952.60                       # Average memory access latency per DRAM burst ((Tick/Count))
system.mem_ctrl.dram.readRowHits              1681461                       # Number of row buffer hits during reads (Count)
system.mem_ctrl.dram.writeRowHits             2047193                       # Number of row buffer hits during writes (Count)
system.mem_ctrl.dram.readRowHitRate             39.47                       # Row buffer hit rate for reads (Ratio)
system.mem_ctrl.dram.writeRowHitRate            88.87                       # Row buffer hit rate for writes (Ratio)
system.mem_ctrl.dram.bytesPerActivate::samples      2834913                       # Bytes accessed per row activation (Byte)
system.mem_ctrl.dram.bytesPerActivate::mean   148.176738                       # Bytes accessed per row activation (Byte)
system.mem_ctrl.dram.bytesPerActivate::gmean    91.150937                       # Bytes accessed per row activation (Byte)
system.mem_ctrl.dram.bytesPerActivate::stdev   223.893171                       # Bytes accessed per row activation (Byte)
system.mem_ctrl.dram.bytesPerActivate::0-127      2235465     78.85%     78.85% # Bytes accessed per row activation (Byte)
system.mem_ctrl.dram.bytesPerActivate::128-255       230668      8.14%     86.99% # Bytes accessed per row activation (Byte)
system.mem_ctrl.dram.bytesPerActivate::256-383        46105      1.63%     88.62% # Bytes accessed per row activation (Byte)
system.mem_ctrl.dram.bytesPerActivate::384-511        50103      1.77%     90.39% # Bytes accessed per row activation (Byte)
system.mem_ctrl.dram.bytesPerActivate::512-639       120320      4.24%     94.63% # Bytes accessed per row activation (Byte)
system.mem_ctrl.dram.bytesPerActivate::640-767        19500      0.69%     95.32% # Bytes accessed per row activation (Byte)
system.mem_ctrl.dram.bytesPerActivate::768-895         8269      0.29%     95.61% # Bytes accessed per row activation (Byte)
system.mem_ctrl.dram.bytesPerActivate::896-1023         9135      0.32%     95.93% # Bytes accessed per row activation (Byte)
system.mem_ctrl.dram.bytesPerActivate::1024-1151       115348      4.07%    100.00% # Bytes accessed per row activation (Byte)
system.mem_ctrl.dram.bytesPerActivate::total      2834913                       # Bytes accessed per row activation (Byte)
system.mem_ctrl.dram.dramBytesRead          272639488                       # Total bytes read (Byte)
system.mem_ctrl.dram.dramBytesWritten       147428992                       # Total bytes written (Byte)
system.mem_ctrl.dram.avgRdBW                63.063604                       # Average DRAM read bandwidth in MiBytes/s ((Byte/Second))
system.mem_ctrl.dram.avgWrBW                34.101456                       # Average DRAM write bandwidth in MiBytes/s ((Byte/Second))
system.mem_ctrl.dram.peakBW                  12800.00                       # Theoretical peak bandwidth in MiByte/s ((Byte/Second))
system.mem_ctrl.dram.busUtil                     0.76                       # Data bus utilization in percentage (Ratio)
system.mem_ctrl.dram.busUtilRead                 0.49                       # Data bus utilization in percentage for reads (Ratio)
system.mem_ctrl.dram.busUtilWrite                0.27                       # Data bus utilization in percentage for writes (Ratio)
system.mem_ctrl.dram.pageHitRate                56.81                       # Row buffer hit rate, read and write combined (Ratio)
system.mem_ctrl.dram.power_state.pwrStateResidencyTicks::UNDEFINED 4323246257000                       # Cumulative time (in ticks) in various power states (Tick)
system.mem_ctrl.dram.rank0.actEnergy       9992337180                       # Energy for activate commands per rank (pJ) (Joule)
system.mem_ctrl.dram.rank0.preEnergy       5311045575                       # Energy for precharge commands per rank (pJ) (Joule)
system.mem_ctrl.dram.rank0.readEnergy     15247048740                       # Energy for read commands per rank (pJ) (Joule)
system.mem_ctrl.dram.rank0.writeEnergy     6008240880                       # Energy for write commands per rank (pJ) (Joule)
system.mem_ctrl.dram.rank0.refreshEnergy 341273328240.000061                       # Energy for refresh commands per rank (pJ) (Joule)
system.mem_ctrl.dram.rank0.actBackEnergy 670496446350                       # Energy for active background per rank (pJ) (Joule)
system.mem_ctrl.dram.rank0.preBackEnergy 1095497976480                       # Energy for precharge background per rank (pJ) (Joule)
system.mem_ctrl.dram.rank0.actPowerDownEnergy            0                       # Energy for active power-down per rank (pJ) (Joule)
system.mem_ctrl.dram.rank0.prePowerDownEnergy            0                       # Energy for precharge power-down per rank (pJ) (Joule)
system.mem_ctrl.dram.rank0.selfRefreshEnergy            0                       # Energy for self refresh per rank (pJ) (Joule)
system.mem_ctrl.dram.rank0.totalEnergy   2143826423445                       # Total energy per rank (pJ) (Joule)
system.mem_ctrl.dram.rank0.averagePower    495.883486                       # Core power per rank (mW) (Watt)
system.mem_ctrl.dram.rank0.totalIdleTime            0                       # Total Idle time Per DRAM Rank (Tick)
system.mem_ctrl.dram.rank0.pwrStateTime::IDLE 2831934948500                       # Time in different power states (Tick)
system.mem_ctrl.dram.rank0.pwrStateTime::REF 144362660000                       # Time in different power states (Tick)
system.mem_ctrl.dram.rank0.pwrStateTime::SREF            0                       # Time in different power states (Tick)
system.mem_ctrl.dram.rank0.pwrStateTime::PRE_PDN            0                       # Time in different power states (Tick)
system.mem_ctrl.dram.rank0.pwrStateTime::ACT 1346948648500                       # Time in different power states (Tick)
system.mem_ctrl.dram.rank0.pwrStateTime::ACT_PDN            0                       # Time in different power states (Tick)
system.mem_ctrl.dram.rank1.actEnergy      10248963060                       # Energy for activate commands per rank (pJ) (Joule)
system.mem_ctrl.dram.rank1.preEnergy       5447449260                       # Energy for precharge commands per rank (pJ) (Joule)
system.mem_ctrl.dram.rank1.readEnergy     15169294140                       # Energy for read commands per rank (pJ) (Joule)
system.mem_ctrl.dram.rank1.writeEnergy     6016436280                       # Energy for write commands per rank (pJ) (Joule)
system.mem_ctrl.dram.rank1.refreshEnergy 341273328240.000061                       # Energy for refresh commands per rank (pJ) (Joule)
system.mem_ctrl.dram.rank1.actBackEnergy 682752472920                       # Energy for active background per rank (pJ) (Joule)
system.mem_ctrl.dram.rank1.preBackEnergy 1085177112000                       # Energy for precharge background per rank (pJ) (Joule)
system.mem_ctrl.dram.rank1.actPowerDownEnergy            0                       # Energy for active power-down per rank (pJ) (Joule)
system.mem_ctrl.dram.rank1.prePowerDownEnergy            0                       # Energy for precharge power-down per rank (pJ) (Joule)
system.mem_ctrl.dram.rank1.selfRefreshEnergy            0                       # Energy for self refresh per rank (pJ) (Joule)
system.mem_ctrl.dram.rank1.totalEnergy   2146085055900                       # Total energy per rank (pJ) (Joule)
system.mem_ctrl.dram.rank1.averagePower    496.405925                       # Core power per rank (mW) (Watt)
system.mem_ctrl.dram.rank1.totalIdleTime            0                       # Total Idle time Per DRAM Rank (Tick)
system.mem_ctrl.dram.rank1.pwrStateTime::IDLE 2804092246000                       # Time in different power states (Tick)
system.mem_ctrl.dram.rank1.pwrStateTime::REF 144362660000                       # Time in different power states (Tick)
system.mem_ctrl.dram.rank1.pwrStateTime::SREF            0                       # Time in different power states (Tick)
system.mem_ctrl.dram.rank1.pwrStateTime::PRE_PDN            0                       # Time in different power states (Tick)
system.mem_ctrl.dram.rank1.pwrStateTime::ACT 1374791351000                       # Time in different power states (Tick)
system.mem_ctrl.dram.rank1.pwrStateTime::ACT_PDN            0                       # Time in different power states (Tick)
system.mem_ctrl.power_state.pwrStateResidencyTicks::UNDEFINED 4323246257000                       # Cumulative time (in ticks) in various power states (Tick)
system.membus.transDist::ReadResp             2131386                       # Transaction distribution (Count)
system.membus.transDist::WritebackDirty       2303641                       # Transaction distribution (Count)
system.membus.transDist::CleanEvict           1949837                       # Transaction distribution (Count)
system.membus.transDist::ReadExReq            2138383                       # Transaction distribution (Count)
system.membus.transDist::ReadExResp           2138383                       # Transaction distribution (Count)
system.membus.transDist::ReadSharedReq        2131386                       # Transaction distribution (Count)
system.membus.pktCount_system.l2cache.mem_side_port::system.mem_ctrl.port     12793016                       # Packet count per connected requestor and responder (Count)
system.membus.pktCount::total                12793016                       # Packet count per connected requestor and responder (Count)
system.membus.pktSize_system.l2cache.mem_side_port::system.mem_ctrl.port    420698240                       # Cumulative packet size per connected requestor and responder (Byte)
system.membus.pktSize::total                420698240                       # Cumulative packet size per connected requestor and responder (Byte)
system.membus.snoops                                0                       # Total snoops (Count)
system.membus.snoopTraffic                          0                       # Total snoop traffic (Byte)
system.membus.snoopFanout::samples            4269769                       # Request fanout histogram (Count)
system.membus.snoopFanout::mean                     0                       # Request fanout histogram (Count)
system.membus.snoopFanout::stdev                    0                       # Request fanout histogram (Count)
system.membus.snoopFanout::underflows               0      0.00%      0.00% # Request fanout histogram (Count)
system.membus.snoopFanout::0                  4269769    100.00%    100.00% # Request fanout histogram (Count)
system.membus.snoopFanout::1                        0      0.00%    100.00% # Request fanout histogram (Count)
system.membus.snoopFanout::overflows                0      0.00%    100.00% # Request fanout histogram (Count)
system.membus.snoopFanout::min_value                0                       # Request fanout histogram (Count)
system.membus.snoopFanout::max_value                0                       # Request fanout histogram (Count)
system.membus.snoopFanout::total              4269769                       # Request fanout histogram (Count)
system.membus.power_state.pwrStateResidencyTicks::UNDEFINED 4323246257000                       # Cumulative time (in ticks) in various power states (Tick)
system.membus.reqLayer0.occupancy         17737811000                       # Layer occupancy (ticks) (Tick)
system.membus.reqLayer0.utilization               0.0                       # Layer utilization (Ratio)
system.membus.respLayer0.occupancy        23543031000                       # Layer occupancy (ticks) (Tick)
system.membus.respLayer0.utilization              0.0                       # Layer utilization (Ratio)
system.membus.snoop_filter.totRequests        8523247                       # Total number of requests made to the snoop filter. (Count)
system.membus.snoop_filter.hitSingleRequests      4265116                       # Number of requests hitting in the snoop filter with a single holder of the requested data. (Count)
system.membus.snoop_filter.hitMultiRequests            0                       # Number of requests hitting in the snoop filter with multiple (>1) holders of the requested data. (Count)
system.membus.snoop_filter.totSnoops                0                       # Total number of snoops made to the snoop filter. (Count)
system.membus.snoop_filter.hitSingleSnoops            0                       # Number of snoops hitting in the snoop filter with a single holder of the requested data. (Count)
system.membus.snoop_filter.hitMultiSnoops            0                       # Number of snoops hitting in the snoop filter with multiple (>1) holders of the requested data. (Count)
system.workload.inst.arm                            0                       # number of arm instructions executed (Count)
system.workload.inst.quiesce                        0                       # number of quiesce instructions executed (Count)

---------- End Simulation Statistics   ----------
